<?xml version="1.0" encoding="UTF-8"?>

<!-- generated on 2022-04-26 22:08:24 by Eclipse SUMO netedit Version v1_10_0+1844-a95981ac25a
<configuration xmlns:xsi="http://www.w3.org/2001/XMLSchema-instance" xsi:noNamespaceSchemaLocation="http://sumo.dlr.de/xsd/netconvertConfiguration.xsd">

    <input>
        <sumo-net-file value="ingolstadt_reduced.net.xml"/>
    </input>

    <output>
        <output-file value="ingolstadt_reduced.net.xml"/>
    </output>

    <processing>
        <geometry.min-radius.fix.railways value="false"/>
        <geometry.max-grade.fix value="false"/>
        <offset.disable-normalization value="true"/>
        <lefthand value="false"/>
    </processing>

    <junctions>
        <no-turnarounds value="true"/>
        <junctions.corner-detail value="5"/>
        <junctions.limit-turn-speed value="5.5"/>
        <rectangular-lane-cut value="false"/>
    </junctions>

    <pedestrian>
        <walkingareas value="false"/>
    </pedestrian>

    <netedit>
        <additional-files value="/home/momo/dateien/Studies/thesis/workspace/InTAS_reduced/scenario/buildings_reduced.poly.xml"/>
    </netedit>

    <report>
        <aggregate-warnings value="5"/>
    </report>

</configuration>
-->

<additional xmlns:xsi="http://www.w3.org/2001/XMLSchema-instance" xsi:noNamespaceSchemaLocation="http://sumo.dlr.de/xsd/additional_file.xsd">
    <poly id="100487015" type="building" color="blue" fill="1" layer="2.00" shape="215790.850000,449738.150000 215802.110000,449741.210000 215804.250000,449733.400000 215792.980000,449730.350000 215790.850000,449738.150000"/>
    <poly id="100487011" type="building" color="blue" fill="1" layer="2.00" shape="215806.180000,449742.630000 215815.330000,449745.480000 215817.740000,449737.800000 215808.600000,449734.940000 215806.180000,449742.630000"/>
    <poly id="100487006" type="building" color="blue" fill="1" layer="2.00" shape="215775.240000,449840.900000 215791.960000,449842.520000 215793.170000,449830.060000 215776.450000,449828.450000 215775.240000,449840.900000"/>
    <poly id="100486998" type="building" color="blue" fill="1" layer="2.00" shape="215775.630000,449815.100000 215789.080000,449817.560000 215791.120000,449806.480000 215777.670000,449804.020000 215775.630000,449815.100000"/>
    <poly id="100486997" type="building" color="blue" fill="1" layer="2.00" shape="215789.760000,449794.710000 215788.590000,449800.740000 215799.350000,449802.820000 215800.520000,449796.780000 215789.760000,449794.710000"/>
    <poly id="100486993" type="building" color="blue" fill="1" layer="2.00" shape="215854.070000,449693.540000 215870.680000,449698.400000 215875.420000,449682.320000 215858.810000,449677.450000 215854.070000,449693.540000"/>
    <poly id="100487018" type="building" color="blue" fill="1" layer="2.00" shape="215837.710000,449739.910000 215854.320000,449744.770000 215858.940000,449729.070000 215842.330000,449724.220000 215837.710000,449739.910000"/>
    <poly id="100487022" type="building" color="blue" fill="1" layer="2.00" shape="215839.030000,449786.780000 215842.530000,449774.850000 215833.730000,449772.280000 215830.230000,449784.200000 215839.030000,449786.780000"/>
    <poly id="100487023" type="building" color="blue" fill="1" layer="2.00" shape="215781.780000,449792.370000 215795.200000,449795.510000 215797.550000,449785.470000 215784.120000,449782.330000 215781.780000,449792.370000"/>
    <poly id="100487025" type="building" color="blue" fill="1" layer="2.00" shape="215798.370000,449844.160000 215809.830000,449845.200000 215810.830000,449834.330000 215799.360000,449833.280000 215798.370000,449844.160000"/>
    <poly id="100487026" type="building" color="blue" fill="1" layer="2.00" shape="215805.820000,449697.120000 215823.990000,449704.180000 215829.190000,449690.870000 215811.020000,449683.810000 215805.820000,449697.120000"/>
    <poly id="100487031" type="building" color="blue" fill="1" layer="2.00" shape="215855.920000,449670.460000 215874.180000,449675.800000 215877.730000,449663.710000 215859.480000,449658.370000 215855.920000,449670.460000"/>
    <poly id="100487033" type="building" color="blue" fill="1" layer="2.00" shape="215802.200000,449724.100000 215824.140000,449731.830000 215828.860000,449718.500000 215806.920000,449710.780000 215802.200000,449724.100000"/>
    <poly id="100487037" type="building" color="blue" fill="1" layer="2.00" shape="215795.590000,449771.750000 215812.400000,449777.280000 215816.150000,449765.930000 215799.330000,449760.410000 215795.590000,449771.750000"/>
    <poly id="100487039" type="building" color="blue" fill="1" layer="2.00" shape="215846.420000,449717.280000 215862.090000,449721.860000 215866.530000,449706.810000 215850.850000,449702.220000 215846.420000,449717.280000"/>
    <poly id="100487049" type="building" color="blue" fill="1" layer="2.00" shape="215826.200000,449685.920000 215838.530000,449689.550000 215843.560000,449672.580000 215831.220000,449668.950000 215826.200000,449685.920000"/>
    <poly id="100487050" type="building" color="blue" fill="1" layer="2.00" shape="215883.950000,449658.300000 215886.830000,449648.500000 215872.860000,449644.410000 215869.980000,449654.220000 215883.950000,449658.300000"/>
    <poly id="100489889" type="building" color="blue" fill="1" layer="2.00" shape="215739.380000,449777.020000 215755.320000,449780.890000 215758.730000,449766.950000 215742.790000,449763.070000 215739.380000,449777.020000"/>
    <poly id="100489891" type="building" color="blue" fill="1" layer="2.00" shape="215693.870000,449809.860000 215710.080000,449810.380000 215710.540000,449796.230000 215694.320000,449795.710000 215693.870000,449809.860000"/>
    <poly id="100489898" type="building" color="blue" fill="1" layer="2.00" shape="215734.670000,449846.900000 215747.620000,449847.850000 215748.460000,449836.570000 215735.510000,449835.610000 215734.670000,449846.900000"/>
    <poly id="100489899" type="building" color="blue" fill="1" layer="2.00" shape="215761.920000,449725.170000 215772.390000,449728.760000 215774.610000,449722.300000 215764.140000,449718.720000 215761.920000,449725.170000"/>
    <poly id="100489904" type="building" color="blue" fill="1" layer="2.00" shape="215746.210000,449757.540000 215759.310000,449762.020000 215762.300000,449753.330000 215749.210000,449748.840000 215746.210000,449757.540000"/>
    <poly id="100489906" type="building" color="blue" fill="1" layer="2.00" shape="215727.210000,449793.940000 215744.570000,449798.160000 215746.920000,449788.550000 215729.560000,449784.330000 215727.210000,449793.940000"/>
    <poly id="100489915" type="building" color="blue" fill="1" layer="2.00" shape="215706.350000,449852.450000 215717.220000,449851.190000 215715.990000,449840.720000 215705.120000,449842.000000 215706.350000,449852.450000"/>
    <poly id="100489920" type="building" color="blue" fill="1" layer="2.00" shape="215756.830000,449742.050000 215768.300000,449745.960000 215770.690000,449739.010000 215759.220000,449735.080000 215756.830000,449742.050000"/>
    <poly id="100489928" type="building" color="blue" fill="1" layer="2.00" shape="215696.390000,449833.100000 215710.570000,449833.550000 215710.960000,449821.430000 215692.310000,449820.830000 215692.170000,449825.230000 215696.640000,449825.370000 215696.390000,449833.100000"/>
    <poly id="100768029" type="building" color="blue" fill="1" layer="2.00" shape="215786.290000,449654.390000 215799.280000,449654.810000 215799.620000,449644.180000 215786.640000,449643.760000 215786.290000,449654.390000"/>
    <poly id="100768032" type="building" color="blue" fill="1" layer="2.00" shape="215732.330000,449818.100000 215746.860000,449820.640000 215749.710000,449804.530000 215735.160000,449801.990000 215732.330000,449818.100000"/>
    <poly id="100768035" type="building" color="blue" fill="1" layer="2.00" shape="215777.870000,449671.250000 215791.330000,449671.210000 215791.300000,449659.260000 215777.840000,449659.290000 215777.870000,449671.250000"/>
    <poly id="100783398" type="building" color="blue" fill="1" layer="2.00" shape="215907.530000,449866.080000 215903.240000,449878.050000 215900.730000,449877.160000 215894.150000,449895.590000 215892.130000,449894.880000 215883.000000,449920.420000 215894.630000,449924.560000 215904.080000,449898.150000 215907.270000,449899.290000 215913.700000,449881.320000 215916.180000,449882.200000 215920.320000,449870.630000 215907.530000,449866.080000"/>
    <poly id="100783400" type="building" color="blue" fill="1" layer="2.00" shape="215759.060000,449901.390000 215772.340000,449904.370000 215780.880000,449866.640000 215767.600000,449863.640000 215759.060000,449901.390000"/>
    <poly id="100783402" type="building" color="blue" fill="1" layer="2.00" shape="215805.930000,449865.300000 215802.150000,449876.790000 215803.950000,449877.390000 215799.990000,449889.450000 215802.550000,449890.290000 215798.850000,449901.560000 215801.570000,449902.440000 215799.280000,449909.420000 215790.180000,449906.450000 215792.250000,449900.150000 215790.710000,449899.650000 215794.460000,449888.210000 215792.680000,449887.630000 215796.770000,449875.170000 215795.430000,449874.730000 215799.240000,449863.120000 215805.930000,449865.300000"/>
    <poly id="100783404" type="building" color="blue" fill="1" layer="2.00" shape="215873.750000,449870.370000 215865.450000,449892.880000 215862.590000,449891.830000 215854.000000,449915.150000 215865.990000,449919.540000 215875.150000,449894.690000 215877.570000,449895.560000 215885.290000,449874.610000 215873.750000,449870.370000"/>
    <poly id="100783405" type="building" color="blue" fill="1" layer="2.00" shape="215969.590000,449877.790000 215962.740000,449896.360000 215958.560000,449894.820000 215954.530000,449905.750000 215950.410000,449904.240000 215944.880000,449919.210000 215941.850000,449918.110000 215939.360000,449924.880000 215952.410000,449929.670000 215955.460000,449921.380000 215959.530000,449922.870000 215965.020000,449907.980000 215969.450000,449909.610000 215973.400000,449898.880000 215978.420000,449900.720000 215984.830000,449883.370000 215969.590000,449877.790000"/>
    <poly id="100783407" type="building" color="blue" fill="1" layer="2.00" shape="215985.450000,449864.930000 215995.120000,449870.270000 216003.810000,449854.610000 215994.140000,449849.280000 215985.450000,449864.930000"/>
    <poly id="100783409" type="building" color="blue" fill="1" layer="2.00" shape="215939.030000,449873.120000 215932.500000,449889.010000 215930.220000,449888.080000 215922.550000,449906.740000 215919.770000,449905.600000 215911.560000,449925.560000 215923.820000,449930.580000 215932.620000,449909.190000 215936.140000,449910.620000 215943.780000,449892.010000 215945.930000,449892.880000 215951.890000,449878.370000 215939.030000,449873.120000"/>
    <poly id="100783410" type="building" color="blue" fill="1" layer="2.00" shape="215805.100000,449913.090000 215810.580000,449913.750000 215816.240000,449865.940000 215810.770000,449865.300000 215805.100000,449913.090000"/>
    <poly id="100783412" type="building" color="blue" fill="1" layer="2.00" shape="215967.320000,449859.530000 215971.660000,449862.470000 215982.280000,449846.810000 215977.940000,449843.880000 215967.320000,449859.530000"/>
    <poly id="100783413" type="building" color="blue" fill="1" layer="2.00" shape="215829.770000,449912.200000 215837.910000,449914.970000 215842.250000,449902.330000 215840.610000,449901.770000 215846.720000,449883.960000 215844.830000,449883.320000 215850.510000,449866.750000 215841.710000,449863.750000 215835.750000,449881.090000 215837.950000,449881.840000 215831.970000,449899.270000 215833.970000,449899.960000 215829.770000,449912.200000"/>
    <poly id="100788947" type="building" color="blue" fill="1" layer="2.00" shape="215705.040000,449680.200000 215714.950000,449681.020000 215715.820000,449670.450000 215705.920000,449669.640000 215705.040000,449680.200000"/>
    <poly id="100788948" type="building" color="blue" fill="1" layer="2.00" shape="215702.280000,449700.890000 215715.110000,449701.950000 215715.860000,449692.960000 215703.030000,449691.910000 215702.280000,449700.890000"/>
    <poly id="100788951" type="building" color="blue" fill="1" layer="2.00" shape="215761.490000,449688.460000 215767.250000,449689.690000 215766.520000,449693.090000 215781.560000,449696.300000 215783.280000,449688.290000 215777.770000,449687.110000 215779.840000,449677.450000 215764.540000,449674.190000 215761.490000,449688.460000"/>
    <poly id="100788952" type="building" color="blue" fill="1" layer="2.00" shape="215700.860000,449743.520000 215700.070000,449753.030000 215711.480000,449753.960000 215712.260000,449744.450000 215700.860000,449743.520000"/>
    <poly id="100788956" type="building" color="blue" fill="1" layer="2.00" shape="215703.980000,449727.840000 215703.280000,449736.310000 215714.640000,449737.240000 215715.340000,449728.780000 215703.980000,449727.840000"/>
    <poly id="100788960" type="building" color="blue" fill="1" layer="2.00" shape="215705.760000,449711.710000 215705.200000,449718.470000 215714.140000,449719.200000 215714.690000,449712.440000 215705.760000,449711.710000"/>
    <poly id="100788961" type="building" color="blue" fill="1" layer="2.00" shape="215747.320000,449868.100000 215740.040000,449897.470000 215745.560000,449898.830000 215752.830000,449869.470000 215747.320000,449868.100000"/>
    <poly id="100788962" type="building" color="blue" fill="1" layer="2.00" shape="215753.830000,449709.170000 215765.900000,449710.360000 215765.650000,449712.810000 215779.930000,449714.220000 215780.380000,449709.650000 215772.050000,449708.830000 215773.100000,449698.170000 215755.090000,449696.410000 215753.830000,449709.170000"/>
    <poly id="100788965" type="building" color="blue" fill="1" layer="2.00" shape="215690.840000,449789.380000 215716.680000,449790.660000 215717.710000,449769.930000 215710.190000,449769.550000 215709.830000,449776.910000 215691.500000,449776.010000 215690.840000,449789.380000"/>
    <poly id="103313528" type="building" color="blue" fill="1" layer="2.00" shape="215479.970000,449960.810000 215485.660000,449970.910000 215503.610000,449960.860000 215497.920000,449950.760000 215479.970000,449960.810000"/>
    <poly id="100788973" type="building" color="blue" fill="1" layer="2.00" shape="215708.660000,449661.210000 215719.490000,449663.570000 215721.100000,449656.190000 215710.270000,449653.830000 215708.660000,449661.210000"/>
    <poly id="101067672" type="building" color="blue" fill="1" layer="2.00" shape="214728.590000,452728.830000 214791.380000,452746.580000 214788.600000,452756.380000 214725.810000,452738.640000 214728.590000,452728.830000"/>
    <poly id="101067676" type="building" color="blue" fill="1" layer="2.00" shape="214779.960000,452765.540000 214791.370000,452767.650000 214784.910000,452802.410000 214773.500000,452800.290000 214779.960000,452765.540000"/>
    <poly id="101238052" type="building" color="blue" fill="1" layer="2.00" shape="214320.860000,451275.070000 214332.580000,451281.450000 214357.830000,451295.060000 214363.090000,451285.400000 214326.130000,451265.400000 214320.860000,451275.070000"/>
    <poly id="101310942" type="building" color="blue" fill="1" layer="2.00" shape="215428.450000,449801.580000 215439.440000,449805.720000 215443.330000,449795.450000 215432.350000,449791.310000 215428.450000,449801.580000"/>
    <poly id="101310943" type="building" color="blue" fill="1" layer="2.00" shape="215536.810000,449770.650000 215531.460000,449762.350000 215523.330000,449767.570000 215528.680000,449775.860000 215536.810000,449770.650000"/>
    <poly id="101310944" type="building" color="blue" fill="1" layer="2.00" shape="215494.470000,449724.360000 215498.730000,449731.330000 215510.680000,449724.070000 215506.430000,449717.100000 215494.470000,449724.360000"/>
    <poly id="101310946" type="building" color="blue" fill="1" layer="2.00" shape="215424.800000,449838.130000 215435.190000,449831.850000 215431.280000,449825.410000 215420.890000,449831.690000 215424.800000,449838.130000"/>
    <poly id="101310947" type="building" color="blue" fill="1" layer="2.00" shape="215489.610000,449777.400000 215498.710000,449792.390000 215513.590000,449783.400000 215504.480000,449768.420000 215489.610000,449777.400000"/>
    <poly id="101310948" type="building" color="blue" fill="1" layer="2.00" shape="215463.620000,449815.900000 215473.710000,449809.800000 215469.150000,449802.310000 215459.060000,449808.410000 215463.620000,449815.900000"/>
    <poly id="101310949" type="building" color="blue" fill="1" layer="2.00" shape="215483.910000,449804.310000 215490.720000,449800.200000 215487.000000,449794.060000 215480.190000,449798.180000 215483.910000,449804.310000"/>
    <poly id="101310950" type="building" color="blue" fill="1" layer="2.00" shape="215441.020000,449771.180000 215437.650000,449780.080000 215452.710000,449785.760000 215456.080000,449776.860000 215441.020000,449771.180000"/>
    <poly id="101310951" type="building" color="blue" fill="1" layer="2.00" shape="215451.040000,449812.840000 215458.680000,449808.230000 215456.240000,449804.220000 215448.610000,449808.840000 215451.040000,449812.840000"/>
    <poly id="101310952" type="building" color="blue" fill="1" layer="2.00" shape="215544.500000,449767.170000 215551.470000,449764.000000 215545.600000,449754.910000 215539.200000,449759.130000 215544.500000,449767.170000"/>
    <poly id="101310953" type="building" color="blue" fill="1" layer="2.00" shape="215441.160000,449830.440000 215456.210000,449821.340000 215451.040000,449812.840000 215435.990000,449821.930000 215441.160000,449830.440000"/>
    <poly id="103301772" type="building" color="blue" fill="1" layer="2.00" shape="215319.580000,449803.200000 215329.580000,449807.020000 215333.110000,449797.830000 215323.100000,449794.010000 215319.580000,449803.200000"/>
    <poly id="101310954" type="building" color="blue" fill="1" layer="2.00" shape="215471.680000,449684.790000 215477.910000,449694.980000 215488.320000,449688.660000 215482.090000,449678.470000 215471.680000,449684.790000"/>
    <poly id="101310955" type="building" color="blue" fill="1" layer="2.00" shape="215501.800000,449738.790000 215507.100000,449747.460000 215522.210000,449738.280000 215516.920000,449729.620000 215501.800000,449738.790000"/>
    <poly id="101310956" type="building" color="blue" fill="1" layer="2.00" shape="215511.530000,449752.070000 215519.940000,449746.960000 215522.670000,449751.430000 215524.940000,449750.060000 215527.080000,449753.560000 215516.400000,449760.050000 215511.530000,449752.070000"/>
    <poly id="101310957" type="building" color="blue" fill="1" layer="2.00" shape="215406.210000,449838.870000 215411.250000,449847.160000 215419.940000,449841.910000 215414.900000,449833.610000 215406.210000,449838.870000"/>
    <poly id="101310958" type="building" color="blue" fill="1" layer="2.00" shape="215478.730000,449660.550000 215484.310000,449670.530000 215493.750000,449665.280000 215488.180000,449655.300000 215478.730000,449660.550000"/>
    <poly id="101320763" type="building" color="blue" fill="1" layer="2.00" shape="215554.710000,449798.270000 215541.920000,449806.450000 215536.930000,449798.690000 215542.180000,449795.330000 215539.400000,449791.010000 215546.940000,449786.190000 215554.710000,449798.270000"/>
    <poly id="101320766" type="building" color="blue" fill="1" layer="2.00" shape="215561.470000,449756.880000 215573.700000,449749.020000 215566.230000,449737.460000 215554.010000,449745.300000 215561.470000,449756.880000"/>
    <poly id="101320767" type="building" color="blue" fill="1" layer="2.00" shape="215531.030000,449655.540000 215539.710000,449650.240000 215535.150000,449642.840000 215526.480000,449648.150000 215531.030000,449655.540000"/>
    <poly id="101320770" type="building" color="blue" fill="1" layer="2.00" shape="215536.250000,449681.200000 215541.960000,449690.470000 215554.490000,449682.810000 215548.780000,449673.530000 215536.250000,449681.200000"/>
    <poly id="101320772" type="building" color="blue" fill="1" layer="2.00" shape="215636.580000,449669.550000 215641.160000,449677.350000 215658.680000,449667.100000 215654.100000,449659.310000 215636.580000,449669.550000"/>
    <poly id="101320774" type="building" color="blue" fill="1" layer="2.00" shape="215587.700000,449835.910000 215594.910000,449847.400000 215628.390000,449826.500000 215638.750000,449843.000000 215635.000000,449845.340000 215644.070000,449859.790000 215641.610000,449861.320000 215646.300000,449868.790000 215654.630000,449863.600000 215649.610000,449855.610000 215644.510000,449847.370000 215646.960000,449845.840000 215643.020000,449839.560000 215645.960000,449837.720000 215636.640000,449822.860000 215642.650000,449819.110000 215636.800000,449809.800000 215603.930000,449830.300000 215601.890000,449827.060000 215587.700000,449835.910000"/>
    <poly id="101320775" type="building" color="blue" fill="1" layer="2.00" shape="215568.340000,449778.510000 215572.430000,449784.860000 215582.390000,449778.490000 215578.300000,449772.140000 215568.340000,449778.510000"/>
    <poly id="101320776" type="building" color="blue" fill="1" layer="2.00" shape="215617.440000,449725.180000 215611.030000,449715.260000 215606.980000,449717.860000 215613.390000,449727.780000 215617.440000,449725.180000"/>
    <poly id="101320777" type="building" color="blue" fill="1" layer="2.00" shape="215634.310000,449695.680000 215637.490000,449701.780000 215646.290000,449697.220000 215643.110000,449691.120000 215634.310000,449695.680000"/>
    <poly id="101320778" type="building" color="blue" fill="1" layer="2.00" shape="215616.790000,449754.110000 215624.220000,449749.360000 215618.700000,449740.790000 215611.270000,449745.560000 215616.790000,449754.110000"/>
    <poly id="101320779" type="building" color="blue" fill="1" layer="2.00" shape="215650.430000,449898.620000 215655.220000,449907.410000 215665.480000,449901.840000 215660.680000,449893.050000 215650.430000,449898.620000"/>
    <poly id="101320780" type="building" color="blue" fill="1" layer="2.00" shape="215538.310000,449670.360000 215548.000000,449664.430000 215542.190000,449654.990000 215532.500000,449660.920000 215538.310000,449670.360000"/>
    <poly id="101320782" type="building" color="blue" fill="1" layer="2.00" shape="215570.970000,449665.760000 215575.990000,449673.910000 215586.100000,449667.720000 215581.090000,449659.560000 215570.970000,449665.760000"/>
    <poly id="101320783" type="building" color="blue" fill="1" layer="2.00" shape="215593.890000,449708.730000 215599.700000,449718.160000 215628.340000,449700.640000 215622.530000,449691.200000 215593.890000,449708.730000"/>
    <poly id="101320785" type="building" color="blue" fill="1" layer="2.00" shape="215553.580000,449784.720000 215561.630000,449797.240000 215571.580000,449790.880000 215568.900000,449786.720000 215567.310000,449787.750000 215561.930000,449779.380000 215553.580000,449784.720000"/>
    <poly id="101320788" type="building" color="blue" fill="1" layer="2.00" shape="215650.960000,449883.700000 215659.080000,449879.370000 215654.210000,449870.290000 215646.090000,449874.620000 215650.960000,449883.700000"/>
    <poly id="101320789" type="building" color="blue" fill="1" layer="2.00" shape="215550.430000,449714.030000 215555.820000,449722.800000 215574.880000,449711.150000 215569.480000,449702.380000 215550.430000,449714.030000"/>
    <poly id="101320791" type="building" color="blue" fill="1" layer="2.00" shape="215552.270000,449821.390000 215557.290000,449829.840000 215569.710000,449822.510000 215564.680000,449814.040000 215552.270000,449821.390000"/>
    <poly id="101320793" type="building" color="blue" fill="1" layer="2.00" shape="215590.910000,449898.170000 215597.030000,449908.480000 215609.950000,449900.840000 215603.820000,449890.530000 215590.910000,449898.170000"/>
    <poly id="101320795" type="building" color="blue" fill="1" layer="2.00" shape="215617.780000,449656.120000 215622.940000,449664.290000 215641.030000,449652.930000 215635.880000,449644.770000 215617.780000,449656.120000"/>
    <poly id="101320796" type="building" color="blue" fill="1" layer="2.00" shape="215629.050000,449787.510000 215637.230000,449782.260000 215631.070000,449772.720000 215622.890000,449777.960000 215629.050000,449787.510000"/>
    <poly id="101320799" type="building" color="blue" fill="1" layer="2.00" shape="215628.380000,449732.330000 215635.710000,449743.690000 215646.360000,449736.860000 215639.030000,449725.500000 215628.380000,449732.330000"/>
    <poly id="101320802" type="building" color="blue" fill="1" layer="2.00" shape="215554.380000,449841.800000 215558.310000,449848.410000 215573.540000,449839.400000 215569.610000,449832.790000 215554.380000,449841.800000"/>
    <poly id="101320803" type="building" color="blue" fill="1" layer="2.00" shape="215581.690000,449685.230000 215587.420000,449694.530000 215618.810000,449675.330000 215613.080000,449666.020000 215581.690000,449685.230000"/>
    <poly id="101320804" type="building" color="blue" fill="1" layer="2.00" shape="215581.610000,449764.830000 215587.360000,449773.760000 215594.730000,449769.060000 215588.980000,449760.130000 215581.610000,449764.830000"/>
    <poly id="101320805" type="building" color="blue" fill="1" layer="2.00" shape="215626.970000,449755.870000 215631.250000,449762.290000 215639.000000,449757.140000 215634.700000,449750.730000 215626.970000,449755.870000"/>
    <poly id="101320806" type="building" color="blue" fill="1" layer="2.00" shape="215602.260000,449769.340000 215608.220000,449778.590000 215617.660000,449772.530000 215611.700000,449763.290000 215602.260000,449769.340000"/>
    <poly id="101320809" type="building" color="blue" fill="1" layer="2.00" shape="215534.570000,449700.280000 215540.360000,449709.700000 215553.150000,449701.880000 215547.360000,449692.460000 215534.570000,449700.280000"/>
    <poly id="101320811" type="building" color="blue" fill="1" layer="2.00" shape="215617.550000,449712.960000 215622.110000,449720.010000 215632.320000,449713.470000 215627.760000,449706.410000 215617.550000,449712.960000"/>
    <poly id="101320813" type="building" color="blue" fill="1" layer="2.00" shape="215581.220000,449744.750000 215591.070000,449738.430000 215584.850000,449728.790000 215579.990000,449731.900000 215576.350000,449726.280000 215569.230000,449730.860000 215573.370000,449737.290000 215575.520000,449735.910000 215581.220000,449744.750000"/>
    <poly id="101320814" type="building" color="blue" fill="1" layer="2.00" shape="215646.570000,449917.170000 215639.740000,449904.650000 215633.200000,449908.200000 215640.030000,449920.720000 215646.570000,449917.170000"/>
    <poly id="101320815" type="building" color="blue" fill="1" layer="2.00" shape="215637.630000,449872.160000 215631.440000,449861.710000 215614.920000,449871.430000 215621.110000,449881.880000 215637.630000,449872.160000"/>
    <poly id="101320817" type="building" color="blue" fill="1" layer="2.00" shape="215637.220000,449801.310000 215627.310000,449807.140000 215625.170000,449803.530000 215619.930000,449806.620000 215616.810000,449801.350000 215631.960000,449792.440000 215637.220000,449801.310000"/>
    <poly id="101320818" type="building" color="blue" fill="1" layer="2.00" shape="215558.310000,449650.250000 215573.850000,449640.760000 215578.870000,449648.910000 215563.330000,449658.410000 215558.310000,449650.250000"/>
    <poly id="101320820" type="building" color="blue" fill="1" layer="2.00" shape="215565.630000,449860.480000 215571.310000,449870.030000 215583.840000,449862.640000 215578.150000,449853.070000 215565.630000,449860.480000"/>
    <poly id="101320822" type="building" color="blue" fill="1" layer="2.00" shape="215564.660000,449804.400000 215567.780000,449802.550000 215569.240000,449805.020000 215577.770000,449799.980000 215584.940000,449812.020000 215573.280000,449818.920000 215564.660000,449804.400000"/>
    <poly id="102694751" type="building" color="blue" fill="1" layer="2.00" shape="215337.190000,449656.440000 215330.600000,449644.940000 215322.240000,449649.700000 215328.840000,449661.200000 215337.190000,449656.440000"/>
    <poly id="102694758" type="building" color="blue" fill="1" layer="2.00" shape="215319.650000,449665.270000 215313.460000,449654.480000 215306.260000,449658.580000 215312.460000,449669.370000 215319.650000,449665.270000"/>
    <poly id="102694759" type="building" color="blue" fill="1" layer="2.00" shape="215325.560000,449708.280000 215315.060000,449689.720000 215305.660000,449695.010000 215316.150000,449713.570000 215325.560000,449708.280000"/>
    <poly id="102694761" type="building" color="blue" fill="1" layer="2.00" shape="215399.350000,449653.750000 215403.350000,449660.820000 215412.170000,449655.860000 215408.180000,449648.780000 215399.350000,449653.750000"/>
    <poly id="102694762" type="building" color="blue" fill="1" layer="2.00" shape="215290.530000,449718.040000 215294.560000,449725.170000 215307.210000,449718.060000 215303.180000,449710.940000 215290.530000,449718.040000"/>
    <poly id="102694766" type="building" color="blue" fill="1" layer="2.00" shape="215381.840000,449674.370000 215377.670000,449667.000000 215385.960000,449662.330000 215382.800000,449656.750000 215390.200000,449652.590000 215397.520000,449665.550000 215381.840000,449674.370000"/>
    <poly id="102694767" type="building" color="blue" fill="1" layer="2.00" shape="215326.800000,449696.140000 215330.140000,449702.070000 215338.110000,449697.580000 215334.760000,449691.670000 215326.800000,449696.140000"/>
    <poly id="102694769" type="building" color="blue" fill="1" layer="2.00" shape="215355.320000,449694.110000 215347.870000,449680.930000 215339.420000,449685.660000 215346.870000,449698.840000 215355.320000,449694.110000"/>