<?xml version="1.0" encoding="UTF-8"?>
<!-- generated on 2022-03-28 18:28:05.156109 by cutRoutes.py UNKNOWN
  options: ingolstadt_reduced.net.xml /home/momo/dateien/Studies/thesis/workspace/InTAS/scenario/routes/InTAS_019.rou.xml <doubleminus>routes-output routes_test/InTAS_019.rou.xml <doubleminus>orig-net ../ingolstadt.net.xml
-->
<routes xmlns:xsi="http://www.w3.org/2001/XMLSchema-instance" xsi:noNamespaceSchemaLocation="http://sumo.dlr.de/xsd/routes_file.xsd">
    <vType color="red" id="default_019" vClass="passenger"/>
    <vType color="blue" id="random_019" vClass="passenger"/>
    <vehicle arrivalPos="78.42" arrivalSpeed="0.00" depart="63818.00" departPos="49.52" id="randUni18269:1" type="random_019">
        <route edges="-25901651#4 25344439 -25344439 25901651#3 29027727#9 -29238188#3 -29238188#2 -29238188#0 -137463478#3 -25797433#3 -25797433#2 -25797315#1 -32202927#1 -32202927#0 -25638527 -25796375#2 -25796375#1 33280102#3 33280102#5 -257907858#1 -115082348#5 -115082348#3 -115082348#2 -115082348#0 -24978651 28132014#0 28132014#1 42745460 42745461#0 42745461#1 54154922#0 54154922#1 26071515#0 26071515#1 4324820 164051399 201956817 33279254#1 556434727 542630099 354967545#0.45 354967545#1 -25188983#1 -25188983#0 -354967514#2 -168243629#2 -168243629#1 141058765#2 141058765#2.33 103718178 -201278216#1 -201278214#1 -29458645 -29458645.13 -29458645.28 131118468#0 131118468#0.16 131118468#1 131118468#3 131118468#4 305390335 201278218#0 306396705 -33779209#2 gneE19 -174609517#3 -33814393#3 -33814393#1 -33814393#0 -391208988 26339462#0 201933877#0 -201933879#6 -201933879#3"/>
    </vehicle>
    <vehicle arrivalPos="200.00" arrivalSpeed="0.00" depart="63826.00" departPos="78.96" id="h13912c1:3" type="default_019">
        <route edges="27454737 266507535 32930761 146973160 266885714 146973156#0 39649528 161680744#1 266887586 266887587 266887592 141058757 266887585#0 266887593#0 266887593#4 266887588#0 266887588#1 58622231#0 58622231#3 115881041#0 115881041#1 115881041#4 461125446#0 461125445 208010459#1 -201953160#1 -140834255#1 -140834262#1 -26471939#1 -26471938 26471932#0 164051398 203971379#0 203971379#1 -54154922#1 -54154922#0 -24977473#2 -24970784#3 -161678034#2 -161678034#2.33 -161678034#2.50 -161678034#1 -161678034#0 28119593 -24983010#2 -24983010#0 -24692391#3 -24692391#1 144659495 144659489 24762523#0 24762523#1 31773007 77670297#0 52572753#0 52572753#2 29119898 145069331#0 145069287#0 145069287#0.136 -103512667#0 103512671 -33102477 -33102476 -36689751#2 10425609#0 10425609#1 201963537#1 -164051413 -653473569#5 -653473569#4 -653473569#2 -653473569#1 -653473569#0 -653473568#1 -28111977#10 -28111977#9"/>
    </vehicle>
    <vehicle arrivalPos="0.00" arrivalSpeed="0.00" depart="63828.00" departPos="0.00" id="carIn88293:1" type="default_019">
        <route edges="380271165#0 161680736 28593900 266885722 266885721#0 161680744#0 161680744#1 266887586 266887587 266887592 141058757 266887585#0 266887593#0 20266190#0 -20266191 201926269#1 20588641#0 28124729#0 354967544#1 354967544#2 4268816#0 4268816#1 201956818#1 201956818#2 201956818#5 164051398 203971379#0 203971379#1 -54154922#1 -54154922#0 -24977473#2 164051410#0 164051410#1 32199969#0 32199969#2 32199969#5 32199989#0 32199989#1 323248156#0 25797090#1 201444272#0 201444272#1 201444272#3 29027727#0 29027727#4 25665374 -29238188#0 -274823622#10 -274823622#7 -274823622#3 25895966#0 -32202510#1 -61326427#1 -274823622#0 -274823622#0.68 -31342351#1 31342349#0 31342349#3 542727960 30399316#0 30399316#0.52"/>
    </vehicle>
    <vehicle arrivalPos="230.00" arrivalSpeed="0.00" depart="63829.59" departPos="0.00" id="carIn17742:1" type="default_019">
        <route edges="221257626.144 39697943 146973153 39530041 266507542 39704923 266507553 39704918 542650138 266507547 -201789796#1 -201789796#0 -201880159#1 25596851#0 25596851#1 25596851#2 25596851#3 25596851#4 25596851#5 25596851#6 41139095 481432711 gneE132 153692837#3 -25597196#6 -25597196#5 -25597196#4 -25597196#3 -25597196#2 -25597196#1 42745460 42745461#0 42745461#1 54154922#0 54154922#1 26071515#0 26071515#1 4324820 164051399 201956817 33279254#1 556434727 542630099 354967545#0.45 354967545#1 -266887590#1 -266887590#0 -589179144 -266887589#2 -201926268#1 -201926269#3 -201926269#2 -201926269#1 -201926269#0 -389840423#0 201926265#0 201926265#1 20588624#0 -201278210#5 -201278210#4"/>
    </vehicle>
    <vehicle arrivalPos="0.00" arrivalSpeed="0.00" depart="63830.00" departPos="0.00" id="carIn13068:1" type="default_019">
        <route edges="380271165#0 161680736 28593900 266885722 266885721#0 161680744#0 161680744#1 266887586 266887587 266887592 141058757 266887585#0 266887593#0 20266190#0 20266190#2 72883541#1 20266189#0 44959795 -44959795 -20266189#0 -72883541#1 -20266190#2 -20266190#1 -266887593#3 -266887591 -141058757 111525330#0 350320331#0 266885723#0 161680739 27453586#0 39970992#0 39970992#1 266885718#0 266885718#1 266885720 32930763 32930762 266507537 27454740 27454730 266507538 266507539 27392718 27392719 4058141 266507543 266507532 327975022 327975022.30 327975022.62 39704920 151167740 266507555 266507554 266507557#0 266507557#1 4058127#1 25623125#0 25623125#2 25794504#0"/>
    </vehicle>
    <vehicle arrivalPos="230.00" arrivalSpeed="0.00" depart="63832.00" departPos="0.00" id="carIn83754:1" type="default_019">
        <route edges="266507542 -28132852 26180725#1 -36291830 30320943 378466167 266507548 257907861 151167740 266507555 266507554 266507557#0 266507557#1 172368742 172368742.57 172368742.75 172368742.185 542650763#0 542650763#1.78 542650763#2 391029008#0 391029008#1 391029008#1.77 391029008#2 -33280103#5 -33280103#3 -33280103#2 -33280103#1 -33280103#0 33280102#0 33280102#1 33280102#2 33280102#3 33280102#5 -257907858#1 -115082348#5 -115082348#3 -115082348#2 -115082348#0 -24978651 28132014#0 28132014#1 42745460 42745461#0 42745461#1 54154922#0 54154922#1 26071515#0 26071515#1 4324820 164051399 201956817 33279254#1 556434727 -201953160#4 -208010459#1 -461125445 -461125446#2 -115881041#4 -115881041#3 -115881041#0 -58622231#5 -58622231#2 -201926269#3 -201926269#2 -201926269#1 -201926269#0 -72883541#3 20975939#0 201926265#1 20588624#0 -201278210#5 -201278210#4"/>
    </vehicle>
    <vehicle arrivalPos="0.00" arrivalSpeed="0.00" depart="63835.00" departPos="140.26" id="h12126c2:1" type="default_019">
        <route edges="-175761127#7 25895943#0 175761127#8 175761127#10 28132813 -25597372 25640093#2 -25596974#1 -25596974#0 481432711 gneE132 153692837#3 -25597196#6 -25597196#5 -25597196#4 -25380714#1 -201926266 -90587320 -37480109 -203971378#1 -25192758 90587321#0 203971379#1 -54154922#1 -54154922#0 -24977473#2 -24970784#3 -161678034#2 -161678034#2.33 -161678034#2.50 -161678034#1 -161678034#0 28119593 -24983010#2 -24983010#0 26973015 -145069303#4 -145069303#3 -145069303#1 -145069303#0 -32009683#1 -24972185#9 -24972185#8 -24972185#8.373 -24972185#1 -389840420#4 -389840420#2 -32061928#4 -32061928#3 -32061928#1 -18909061#1 -204388144#1 -204388144#0 -137685135 -51856496#7 -51856496#5 -51856496#4 -51856496#3 -51856496#2 -51856496#1 -51856496#0 -390282481 -156923526#3 -156923526#2 -10425610#2 -102818928#1 -102818928#0 -102818928#0.78 -61940355 -24495188 -29458641 -61940356 29458640#0 172517196 -38508400#1 gneE20 33779209#1 174321447 58295043 32923863#2 266607804#0 266607804#1 266607804#2 266607803#0 266607803#1 266607803#2 266607792#0"/>
    </vehicle>
    <vehicle arrivalPos="25.00" arrivalSpeed="0.00" depart="63835.00" departPos="0.00" id="carIn82602:1" type="default_019">
        <route edges="380271165#0 161680736 28593900 266885722 266885721#0 161680744#0 161680744#1 266887586 266887587 266887592 141058757 266887585#0 266887593#0 266887593#4 266887588#0 266887588#1 -201926269#3 -201926269#2 -201926269#1 20266191 -20266190#1 -266887593#3 -266887591 -141058757 111525330#0 350320331#0 266885723#0 161680739 27453586#0 gneE119"/>
    </vehicle>
    <vehicle arrivalPos="0.00" arrivalSpeed="0.00" depart="63837.00" departPos="0.00" id="carIn122970:1" type="default_019">
        <route edges="380271165#0 161680736 28593900 266885722 266885721#0 161680744#0 161680744#1 266887586 266887587 266887592 141058757 266887585#0 266887593#0 20266190#0 -20266191 201926269#1 20588641#0 28124729#0 354967544#1 354967544#2 4268816#0 4268816#1 201956818#1 201956818#2 201956818#5 164051398 203971379#0 203971379#1 -54154922#1 -54154922#0 -24977473#2 164051410#0 164051410#1 32199969#0 32199969#2 32199969#5 32199989#0 32199989#1 323248156#0 25797090#1 201444272#0 201444272#1 201444272#3 29027727#0 29027727#4 25665374 -29238188#0 -274823622#10 -274823622#7 -274823622#3 25895966#0 -32202510#1 -61326427#1 -61326427#0 -144657087#0 31342350#1 31342350#2 31342350#2.130 391208990 391029009#0 391029009#0.69 391029009#1 391029009#1.157 41425835 41425835.214 41425835.236 151167747 151167747.23 549032836 39704924 39704922"/>
    </vehicle>
    <vehicle arrivalPos="0.00" arrivalSpeed="0.00" depart="63839.00" departPos="0.00" id="carIn59891:1" type="default_019">
        <route edges="380271165#0 161680736 28593900 266885722 266885721#0 161680744#0 161680744#1 266887586 266887587 266887592 141058757 266887585#0 266887593#0 266887593#4 266887588#0 266887588#1 201926268#0 266887589#0 589179144 266887590#0 266887590#1 4268816#0 4268816#1 201956818#1 201956818#2 201956818#5 164051398 25188982#0 25192758 203971378#0 37480109 90587320 90587320.64 201926266 25380714#0 25597196#4 25597196#5 25597196#6 -153692837#3 -153692837#2 -25596855#0 25596974#1 -25640093#2 25597372 202070429#6 -25895945#2 -175761127#7 -175761127#1 -26180725#2 28132852 266507557#0 266507557#1 4058127#1 25623125#0 25623125#2 -39698490 -39698489 -37681592#6 -37681592#5 -37681592#4 -37681592#3 -37681592#2 -37681592#1 -441565711 -47067277 138300617#5 -39577540 -39577538 39577537 306793670#1"/>
    </vehicle>
    <vehicle arrivalPos="0.00" arrivalSpeed="0.00" depart="63840.59" departPos="0.00" id="carIn17561:1" type="default_019">
        <route edges="221257626.144 39697943 146973153 39530041 39530040 266507557#1 4058127#1 25623125#0 25623125#2 -39698490 -39698489 -37681592#6 -37681592#5 -37681592#4 -37681592#3 -37681592#2 -37681592#1 -37681592#0 138300617#4 138300617#5 -157305703 157305700#0 157305700#1 157305700#2"/>
    </vehicle>
    <vehicle arrivalPos="0.00" arrivalSpeed="0.00" depart="63844.00" departPos="0.00" id="carIn125164:1" type="default_019">
        <route edges="380271165#0 161680736 28593900 266885722 266885721#0 161680744#0 161680744#1 266887586 266887587 266887592 141058757 266887585#0 266887593#0 266887593#4 266887588#0 266887588#1 -201926269#3 -201926269#2 -201926269#1 -201926269#0 -72883541#3 -72883541#2 20266189#0 20266189#1 -201926265#2 20588624#0 20588624#1 20588624#2 -205182378#6 -205182378#5 -205182378#4"/>
    </vehicle>
    <vehicle arrivalPos="97.54" arrivalSpeed="0.00" depart="63845.00" departPos="64.35" id="randUni7767:1" type="random_019">
        <route edges="29027727#7 -25901651#4 25344439 -25344439 25901651#3 -29027727#8 -29027727#6 -29027727#5 -29027727#2 -201444272#4 -201444272#2 -201444272#0 30404130#0 323248169#0 323248155#1 24971737#3 -32199989#1 -32199989#0 -32199969#5 -32199969#4 -32199969#1 -164051410#1 24989879 42745460 42745461#0 42745461#1 54154921#0 54154921#3 201926266 25380714#0 25597196#4 25597196#5 25595931 -153692841#2 -25595895#0 -25597196#4"/>
    </vehicle>
    <vehicle arrivalPos="60.61" arrivalSpeed="0.00" depart="63846.00" departPos="5.87" id="randUni32452:1" type="random_019">
        <route edges="266567294#0 31342064#1 31342064#1.83 25902677#0 137463478#0 137463478#1 137463478#2 29238187#0 25797084#0 25797084#1 25797084#2 24846867#3"/>
    </vehicle>
    <vehicle arrivalPos="182.35" arrivalSpeed="0.00" depart="63846.59" departPos="0.00" id="carIn14498:1" type="default_019">
        <route edges="221257626.144 39697943 146973153 39530041 39530040 266507557#1 172368742 172368742.57 172368742.75 172368742.185 542650763#0 542650763#1.78 542650763#2 391029008#0 391029008#1 391029008#1.77 391029008#2 -33280103#5 -26176222#1 -25895864#1 -25895864#0 71900674#2 144657087#6 33280102#2 33280102#3 33280102#5 257907860#0 257907860#1.168 305390325#0 305390325#3 266567304#0 266567301#1 64464420 25955089 64464430 32009826#0 32009826#1 31342305 30404124 266567307#0 233673425#0 233673425#1 24977590#0 24977590#1 266565299 266565295#0 266565295#1 266565295#2 266565295#3 266565295#4 266565295#5 32999435 29236658#2 -24608844 -160314345#6 -160314345#5 -160314345#4 -160314345#3 -160314345#2 -160314345#1 -160314345#0 201238718#0 201238718#1 201238718#2 174800513 201201953#0 201201953#2 -173203413#7 22724699#3"/>
    </vehicle>
    <vehicle arrivalPos="0.00" arrivalSpeed="0.00" depart="63848.00" departPos="0.00" id="carIn36589:1" type="default_019">
        <route edges="380271165#0 161680736 28593900 266885722 266885721#0 161680744#0 161680744#1 266887586 266887587 266887592 141058757 266887585#0 266887593#0 20266190#0 20266190#2 -72883541#0 30054829#0 201926265#5 201278209#0 -20405628#4 -20405628#3"/>
    </vehicle>
    <vehicle arrivalPos="17.38" arrivalSpeed="0.00" depart="63851.00" departPos="0.00" id="carIn54029:1" type="default_019">
        <route edges="380271165#0 161680736 28593900 266885722 266885721#0 161680744#0 161680744#1 266887586 266887587 266887592 141058757 266887585#0 266887593#0 20266190#0 -20266191 201926269#1 20588641#0 20588641#1 -48742425#1 -48742425#0 -205182378#15 -205182378#14 20975942#0 20975942#1 20975942#2 -20975950#1 -168245119#2 23184317 29458101 39443315#0 39443316#0 -32923863#1 151167768#0 151167768#1 172515814#0 172515814#1 305390324 -39649533 32923867#1 32923867#1.96 32923867#2 32923867#3 32923867#4 379723624#0 379723624#1 130996518#0 -233673423 -32201044#2 -32201044#1 145069336#0"/>
    </vehicle>
    <vehicle arrivalPos="36.83" arrivalSpeed="0.00" depart="63854.00" departPos="26.61" id="randUni33225:1" type="random_019">
        <route edges="51856496#6 32202011#0 37649447#0 37649448#0 37649448#1 145069394#0 145069394#1 145069391 145069373#0 145069294#0 32201042 32201044#0 32201044#1 32201044#2 233673423 28418763 -379723624#1 -379723624#0 -32923867#4 -32923867#3 -32923867#2 -32923867#1 -32923867#0 130996520 130996520.58 172519650 306396705 174321447 58295043 -39443316#2 39443315#1 4819338#4 163586462 28269810#0 28269810#2 28269810#3 -20975954#1 20975943#2 -205182378#12 -205182378#11"/>
    </vehicle>
    <vehicle arrivalPos="0.00" arrivalSpeed="0.00" depart="63855.00" departPos="0.00" id="carIn94598:1" type="default_019">
        <route edges="380271165#0 161680736 28593900 266885722 266885721#0 161680744#0 161680744#1 266887586 266887587 266887592 141058757 266887585#0 266887593#0 20266190#0 -20266191 201926269#1 20588641#0 28124729#0 354967544#1 354967544#2 4268816#0 4268816#1 201956818#1 201956818#2 201956818#5 164051398 25188982#0 25192758 90587322#0 -10425611#1 -10425611#0 -10425611#0.35 -164051429#1 -164051429#0 -161678034#2 -161678034#2.33 -161678034#2.50 -161678034#1 -161678034#0 -51857519#1 -32350852#4 -32350852#3 -32350852#1 -28418764#2 -28418764#1 -28418764#0.88 -28418764#0.109 -542617943 -389831364 10425610#0 156923526#0 156923526#3 390282481 51856496#0 51856496#1 51856496#2 51856496#3 51856496#4 51856496#5 51856496#6 51856496#8 204388144#0 204388144#1 -33102476 -36689751#2 10425609#0 10425609#1 201963537#1 -164051413 -653473569#5 -653473569#4 -653473569#2 -653473569#1 -653473569#0 -653473568#1 -653473568#0 -18813598#8"/>
    </vehicle>
    <vehicle arrivalPos="25.00" arrivalSpeed="0.00" depart="63855.35" departPos="0.00" id="carIn73579:1" type="default_019">
        <route edges="266885717 266885715 266885715.39 266885718#0 266885718#1 266885720 32930763 32930762 266507537 27454740 27454730 266507538 266507539 27392718 27392719 4058141 266507543 266507532 327975022 327975022.30 327975022.62 39704920 151167740 266507555 266507554 -28132852 26180725#1 -36291830 30320943 23622426 -195073412#2 -195073412#1 -195073412#0 195073415 266507536 27550700 27454737 266507535 32930761 146973160 266885714 146973156#0 450076615#0 161680739 27453586#0 gneE119"/>
    </vehicle>
    <vehicle arrivalPos="53.35" arrivalSpeed="0.00" depart="63856.35" departPos="0.00" id="carIn49583:1" type="default_019">
        <route edges="266885717 266885715 266885715.39 266885718#0 266885718#1 266885720 32930763 32930762 266507537 27454740 27454730 266507538 266507539 27392718 27392719 4058141 266507543 266507532 327975022 327975022.30 327975022.62 39704920 151167740 266507555 266507554 -28132852 26180725#1 -36291830 -201789796#1 -201789796#0 -201880159#1 -201880159#0 25625974 202070431 -201789799#2 -201789799#1 -201789799#0 -30482638#13 -30482638#11 -30482638#10 -30482638#9 -30482638#8 -30482638#3 -30482638#2 -201926266 -54154921#3 -54154921#2 54154922#0 54154922#1 26071515#0 26071515#1 4324820 164051399 201956817 33279254#1 556434727 542630099 354967545#0.45 354967545#1 141058765#0 141058765#1 141058765#2 141058765#2.33 31624236#0 172700927#0 -48742425#2 -48742425#1 -48742425#0 -205182378#15 -205182378#14 -205182378#13 -205182378#12 -205182378#11 -28269810#6 -28269810#4 -28269810#3 -28269810#2 -28269810#1 -163586462 -4819338#4 -4819338#3 -4819338#1 -4819338#0 23184274#0 23184274#1 23184274#2 33814393#0 33814393#1 33814393#2 174609517#0 38508400#1 172515811#0 306086241 61940356 172515808 24495188 61940355 201969576#0 201969576#1 201969576#2 201969576#5 201969576#6 201969576#7 29497467 124812856#0 124812856#1 201956821#0 201956821#1.68 201963537#1 -164051413 -653473569#5 -653473569#4 -653473569#2 -653473569#1 -653473569#0 -653473568#1 -653473568#0 -18813598#8"/>
    </vehicle>
    <vehicle arrivalPos="25.00" arrivalSpeed="0.00" depart="63857.59" departPos="0.00" id="carIn68444:1" type="default_019">
        <route edges="221257626.144 39697943 146973153 39530041 266507542 39704923 266507553 39704918 542650138 266507547 -201789796#1 -201789796#0 -201880159#1 -201880159#0 25625974 202070431 -201789799#2 -201789799#1 -201789799#0 -30482638#13 -30482638#11 -30482638#10 -30482638#9 -153692837#5 -153692841#3 -25595931 -25597196#5 -25597196#4 -25597196#3 -25597196#2 -25597196#1 42745460 42745461#0 42745461#1 54154922#0 54154922#1 26071515#0 26071515#1 4324820 164051399 201956817 33279254#1 556434727 542630099 354967545#0.45 354967545#1 -266887590#1 -266887590#0 -589179144 -266887589#2 -201926268#1 -266887588#1 -266887588#0 -266887593#6 -266887593#3 -266887591 -141058757 111525330#0 350320331#0 266885723#0 161680739 27453586#0 gneE119"/>
    </vehicle>
    <vehicle arrivalPos="230.00" arrivalSpeed="0.00" depart="63859.09" departPos="0.00" id="carIn93848:1" type="default_019">
        <route edges="306793669 32976752 28091398 327975022 327975022.30 327975022.62 39704919 28091397 542650138 266507547 -266507550 -308849647 -201789794#3 -201789794#2 -202070429#9 -202070429#6 -202070429#5 -202070429#4 -202070429#3 -202070429#2 -202070429#1 -202070429#0 151167728 257907859#0 257907859#1 257907860#0 257907860#1.168 305390325#0 25797295#0 -201444272#0 30404130#0 30404130#1 64464420 25955089 64464430 64464399#0 64464399#1 64464432#0 64464432#1 64464432#2 -24991571 -24991573 -11014139#1 145069303#0 145069303#1 145069303#2 145069303#4 -26973015 24983010#0 24983010#1 161678033#0 -32350852#4 -32350852#3 -32350852#1 -28418764#2 -28418764#1 -28418764#0.88 -28418764#0.109 -542617943 -389831364 -102818928#1 -102818928#0 -102818928#0.78 -61940355 -24495188 -29458641 -61940356 29458640#0 172517198#0 356952270 54033673#0 54033673#0.28 54033673#2 54033673#3 29458645 29458645.65 29458645.81 37282738 103718186 37282688#2 37282688#4 37282688#5 23184252#0 23184252#1 201926265#0 201926265#1 201926265#2 201926265#3 201926265#4 201926265#5 201278209#0 201278209#2 -20405619"/>
    </vehicle>
    <vehicle arrivalPos="25.00" arrivalSpeed="0.00" depart="63862.00" departPos="9.92" id="h21150c2:1" type="default_019">
        <route edges="306396705 -103718173 -27893434#1 -27893434#0 -23184317 168245119#0 -20975950#0 37282688#2 37282688#4 37282688#5 23184252#0 23184252#1 389840423#0 389840423#1 201926269#1 201926269#2 201926269#3 -266887588#1 -266887588#0 -266887593#6 -266887593#3 -266887591 -141058757 111525330#0 350320331#0 266885723#0 161680739 27453586#0 gneE119"/>
    </vehicle>
    <vehicle arrivalPos="230.00" arrivalSpeed="0.00" depart="63864.00" departPos="95.34" id="h8672c2:1" type="default_019">
        <route edges="24634510#1 24634510#6 204588664#0 -23436553#2 -23436553#1 -22690205#1 233675413#4 233675413#7 -25145013#1 -25145013#0 -653473569#4 -653473569#2 -653473569#1 -25149001#5 -25149001#4 -25149001#3 -25149001#2 -25149001#0 -173169611#0 201956821#0 201956821#1.68 201956811#0 36689751#0 33102476 18909064 gneE3 103512667#0 103512667#1 103512667#2 32234776#0 32226141#0 358042226 52513194 300750369#0 145069325#0 145069384 37649448#0 37649448#1 145069394#0 145069394#1 145069391 145069373#0 145069294#0 32201042 32201044#0 32201044#1 32201044#2 233673423 28418763 -379723624#1 -379723624#0 -32923867#4 -32923867#3 -32923867#2 -32923867#1 -32923867#0 130996520 130996520.58 172519650 306396705 174321447 58295043 32923863#2 266607804#0 266607804#1 266607804#2 23184274#0 23184274#1 24499966#0 24499966#1 201933880#0 201933880#3"/>
    </vehicle>
    <vehicle arrivalPos="0.00" arrivalSpeed="0.00" depart="63866.59" departPos="0.00" id="carIn86837:1" type="default_019">
        <route edges="221257626.144 39697943 146973153 39530041 39530040 266507557#1 172368742 172368742.57 172368742.75 172368742.185 542650763#0 542650763#1.78 542650763#2 391029008#0 391029008#1 391029008#1.77 391029008#2 -33280103#5 -33280103#3 -33280103#2 -33280103#1 71900674#0 71900674#1 71900674#2 144657087#6 33280102#2 33280102#3 33280102#5 -257907858#1 -115082348#5 -115082348#3 -115082348#2 -115082348#0 -24978651 28132014#0 28132014#1 42745460 42745461#0 42745461#1 54154922#0 54154922#1 26071515#0 26071515#1 4324820 26471940#0 -164051438#2 -164051438#1 -164051438#0 -164051438#0.46 -164051438#0.62 -26471933 140834262#0 140834255#0 201953160#0 -208010459#1 -461125445 -461125446#2 -115881041#4 -115881041#3 -115881041#0 -58622231#5 -58622231#2 -266887588#1 -266887588#0 -266887593#6 -266887593#3 -266887591 -141058757 111525330#0 350320331#0 266885723#0 161680732 146973150#0 266885719 266885719.121 266885713"/>
    </vehicle>
    <vehicle arrivalPos="0.00" arrivalSpeed="0.00" depart="63867.00" departPos="0.00" id="carIn59334:1" type="default_019">
        <route edges="380271165#0 161680736 28593900 266885722 146973149 146973150#0 266885719 266885719.121 266885713"/>
    </vehicle>
    <vehicle arrivalPos="25.00" arrivalSpeed="0.00" depart="63870.35" departPos="0.00" id="carIn38769:1" type="default_019">
        <route edges="266885717 266885715 266885715.39 266885718#0 266885718#1 266885720 32930763 32930762 266507537 27454740 27454730 266507538 266507539 27392718 27392719 4058141 266507543 266507532 327975022 327975022.30 327975022.62 39704920 151167740 266507555 266507554 -28132852 26180725#1 -36291830 -201789796#1 -201789796#0 -201880159#1 -201880159#0 25625974 202070431 -201789799#2 -201789799#1 -201789799#0 -30482638#13 -30482638#11 -30482638#10 -30482638#9 -30482638#8 -30482638#3 -30482638#2 -201926266 -54154921#3 -54154921#2 54154922#0 54154922#1 26071515#0 26071515#1 4324820 164051399 201956817 33279254#1 556434727 542630099 354967545#0.45 354967545#1 141058765#0 141058765#1 141058765#2 141058765#2.33 31624236#0 172700927#0 -48742425#2 -20588641#4 -20588641#0 -201926269#1 20266191 -20266190#1 -266887593#3 -266887591 -141058757 111525330#0 350320331#0 266885723#0 161680739 27453586#0 gneE119"/>
    </vehicle>
    <vehicle arrivalPos="0.00" arrivalSpeed="0.00" depart="63872.00" departPos="16.36" id="h235c1:1" type="default_019">
        <route edges="145069328 145069363#0 145069272 -29119898 -32924041#3 145069323#0 32230349#0 145069347#0 103512667#0 103512667#1 103512667#2 32234776#0 32226141#0 358042226 52513194 300750369#0 145069325#0 145069384 37649448#0 37649448#1 145069394#0 145069394#1 145069391 145069373#0 -24982688#4 -24982688#2 -24982688#1 -24982688#1.52 -145069366#3 -145069366#2 32350852#0 32350852#3 32350852#4 51857519#0 161678034#0 161678034#1 161678034#2 161678034#2.30 161678034#2.46 24970784#0 164051410#0 164051410#1 32199969#0 32199969#2 32199969#5 32199989#0 32199989#1 323248156#0 31342064#1 31342064#1.83 305495773#0 266507551 266507552#0 27202149 202070427#0 202070427#1 202070427#2 33280103#0 33280103#1 33280103#2 33280103#3 33280103#4 33280103#4.68 97304242#0 25626605#0 25626605#1 25626605#2 25626605#4 60064938#0 60064938#1 60064938#2 60064938#3 60064938#4 391029014#0 391029014#1 -25623127#1 -25623127#0 -25623126#2 -25623126#1 25623125#2 -39698490 -39698489 -37681592#6 -37681592#5 -37681592#4 -37681592#3 -37681592#2 -37681592#1 -441565711 -47067277 138300617#5 -39577540 -39577538 39577537 306793670#1"/>
    </vehicle>
    <vehicle arrivalPos="101.89" arrivalSpeed="0.00" depart="63872.09" departPos="0.00" id="carIn47967:1" type="default_019">
        <route edges="306793669 32976752 28091398 327975022 327975022.30 327975022.62 39704920 151167740 266507555 266507554 -28132852 26180725#1 175761127#0 25895943#0 25895945#2 -202070429#6 -25597372 25640093#2 25640093#3 25640093#4 -25596861#0 -202070429#1 -202070429#0 151167728 257907859#0 257907859#1 257907860#0 257907860#1.168 305390325#0 305390325#3 266567304#0 266567301#1 64464420 25955089 64464430 64464399#0 64464399#1 64464432#0 64464432#1 64464432#2 -24991571 -24991573 -11014139#1 145069303#0 145069303#1 145069303#2 145069303#4 -26973015 -24692391#3 -24692391#1 144659495 144659489 24762523#0"/>
    </vehicle>
    <vehicle arrivalPos="60.28" arrivalSpeed="0.00" depart="63874.00" departPos="26.54" id="randUni22256:1" type="random_019">
        <route edges="48742425#2 32881076#0 37282369 354967544#0 -28124729#3 20588641#1 -48742425#1 -48742425#0 -37282688#5 -37282688#4 -37282688#3 -37282688#1 29458100#0 -201278214#1 -29458645 -29458645.13 -29458645.28 131118468#0 131118468#0.16 131118468#1 131118468#3 131118468#4 305390335 172515813 201278215 305390324 -39649533 32923867#1 32923867#1.96 32923867#2 32923867#3 32923867#4 379723624#0 379723624#1 130996518#0 -233673423 -32201044#2 -32201044#1 145069336#0 145069336#1 145069336#2 145069280#0 -145069391 145069286#0 32229741 32229742#1 32229742#3 32229742#4 32229742#5 145069311#0 32229973 -32229976 32084380 103396186 -103512667#1 -103512667#0 -145069347#2 25122830#0 -32061928#1 18909063#0 18909063#1 -36689751#2 10425609#0 10425609#1 201963537#1 -164051413 -653473569#5 -653473569#4 -653473569#2 -653473569#1 -653473569#0 -653473568#1 -653473568#0 -18813598#8"/>
    </vehicle>
    <vehicle arrivalPos="48.82" arrivalSpeed="0.00" depart="63874.35" departPos="0.00" id="carIn31264:1" type="default_019">
        <route edges="266885717 146973183#0 450072140 28593900 266885722 266885721#0 161680744#0 161680744#1 266887586 266887587 266887592 141058757 266887585#0 266887593#0 266887593#4 266887588#0 266887588#1 201926268#0 266887589#0 589179144 266887590#0 266887590#1 141058765#0 141058765#1 141058765#2 141058765#2.33 31624236#0 172700927#0 -48742425#2 -48742425#1 -48742425#0 -205182378#15 -205182378#14 -205182378#13 -20975943#2 -20975943#1 -20975943#0 -20975948#0 23184317 29458101 27893434#1 27893434#2 -33779209#2 gneE19 -174609517#3 26334131"/>
    </vehicle>
    <vehicle arrivalPos="9.12" arrivalSpeed="0.00" depart="63875.35" departPos="0.00" id="carIn43678:1" type="default_019">
        <route edges="266885717 266885715 266885715.39 266885718#0 266885718#1 266885720 32930763 32930762 266507537 27454740 27454730 266507538 266507539 27392718 27392719 4058141 266507543 266507532 327975022 327975022.30 327975022.62 39704919 28091397 542650138 266507547 -266507550 -308849647 -201789794#3 -201789794#2 -202070429#9 -202070429#6 -25597372 25640093#2 -25596974#1 25596855#0 25596855#1 25596855#2 -25597196#4 -25597196#3 -25597196#2 -25597196#1 42745460 42745461#0 42745461#1 -24977473#2 164051410#0 164051410#1 32199969#0 32199969#2 32199969#5 32199989#0 32199989#1 323248156#0 266567301#1 64464420 25955089 64464430 32009826#0 32009826#1 31342305 30404124 266567307#0 233673425#0 233673425#1 29238186 140684000#0 140684000#1 203127020#0 200741048"/>
    </vehicle>
    <vehicle arrivalPos="200.00" arrivalSpeed="0.00" depart="63877.59" departPos="0.00" id="carIn65838:1" type="default_019">
        <route edges="221257626.144 39697943 146973153 39530041 39530040 266507557#1 172368742 172368742.57 172368742.75 172368742.185 542650763#0 542650763#1.78 542650763#2 391029008#0 391029008#1 391029008#1.77 391029008#2 -33280103#5 -26176222#1 -25895864#1 -25895864#0 71900674#2 144657087#6 33280102#2 33280102#3 33280102#5 257907860#0 257907860#1.168 305390325#0 305390325#3 266567304#0 266567301#1 64464420 25955089 64464430 32009826#0 32009826#1 31342305 30404124 266567307#0 233673425#0 233673425#1 24977590#0 24977590#1 266565299 266565295#0 266565295#1 266565295#2 266565295#3 266565295#4 266565295#5 32999435 29236658#2 -24608844 -160314345#6 -160314345#5 -160314345#4 -160314345#3 -160314345#2 -160314345#1 -160314345#0 201238718#0 201238718#1 201238718#2 174800513 201201953#0 201201953#2 -173203413#7 22724699#3"/>
    </vehicle>
    <vehicle arrivalPos="71.98" arrivalSpeed="0.00" depart="63878.00" departPos="88.20" id="h7263c1:3" type="default_019">