<?xml version="1.0" encoding="UTF-8"?>
<!-- generated on 2022-03-28 18:26:25.814312 by cutRoutes.py UNKNOWN
  options: ingolstadt_reduced.net.xml /home/momo/dateien/Studies/thesis/workspace/InTAS/scenario/routes/InTAS_004.rou.xml <doubleminus>routes-output routes_test/InTAS_004.rou.xml <doubleminus>orig-net ../ingolstadt.net.xml
-->
<routes xmlns:xsi="http://www.w3.org/2001/XMLSchema-instance" xsi:noNamespaceSchemaLocation="http://sumo.dlr.de/xsd/routes_file.xsd">
    <vType color="red" id="default_004" vClass="passenger"/>
    <vType color="blue" id="random_004" vClass="passenger"/>
    <vehicle arrivalPos="0.00" arrivalSpeed="0.00" depart="23754.00" departPos="51.15" id="h10738c2:1" type="default_004">
        <route edges="31342347 32203023#0 32203023#2 32203023#2.134 31342350#0 144657087#0 144657087#1 -26176223#1 -26176223#0 -25895864#1 -25895864#0 71900674#2 144657087#6 33280102#2 33280102#3 33280102#5 -257907858#1 -115082348#5 -115082348#3 -115082348#2 -115082348#0 -24978651 28132014#0 28132014#1 42745460 42745461#0 42745461#1 54154922#0 54154922#1 26071515#0 26071515#1 4324820 164051399 201956817 33279254#1 556434727 542630099 354967545#0.45 354967545#1 141058765#0 141058765#1 141058765#2 141058765#2.33 103718178 -201278216#1 -201278214#1 -29458645 -29458645.13 -29458645.28 131118468#0 131118468#0.16 131118468#1 131118468#3 131118468#4 305390335 172515813 201278215 305390333 172515812#0 172517196 -38508400#1 -174609517#3 -33814393#3 -33814393#1 -33814393#0 -391208988 -40623117#2 -51244813#8 -51244813#7 -51244813#6 -51244813#5 -51244813#5.55 -51244813#3"/>
    </vehicle>
    <vehicle arrivalPos="100.68" arrivalSpeed="0.00" depart="23755.00" departPos="50.63" id="h3640c2:1" type="default_004">
        <route edges="160314345#4 -315358245 -202092675.36 -4942389#1 -4942389#0 -136436466 -315358251#1"/>
    </vehicle>
    <vehicle arrivalPos="200.00" arrivalSpeed="0.00" depart="23755.00" departPos="82.94" id="h4429c2:1" type="default_004">
        <route edges="266565295#2 266565295#3 266565295#4 266565295#5 32999435 32124637#0 32124637#1 168702040#1 168702040#2 168702040#3 168702040#4 168702039#0 168702039#1 32999434#0 201089423#0 201089423#2 32124744 32124743 285716192#0 285716192#0.83 201963535 -104010328 -25145012#6 -25145012#5 -22716069#1 -22716069#0 -233675413#1 -233675413#0 -136728347#4"/>
    </vehicle>
    <vehicle arrivalPos="200.00" arrivalSpeed="0.00" depart="23755.00" departPos="0.00" id="carIn133587:1" type="default_004">
        <route edges="380271165#0 161680736 28593900 266885722 266885721#0 161680744#0 161680744#1 266887586 266887587 266887592 141058757 266887585#0 266887593#0 266887593#4 266887588#0 266887588#1 201926268#0 266887589#0 589179144 266887590#0 266887590#1 141058765#0 141058765#1 141058765#2 141058765#2.33 103718178 -201278216#1 -201278214#1 -29458645 -29458645.13 -29458645.28 131118468#0 131118468#0.16 131118468#1 131118468#3 131118468#4 305390335 172515813 201278215 305390333 172515812#0 306086241 61940356 172515808 24495188 61940355 102818925 102818928#1 10425610#0 156923526#0 156923526#3 390282481 51856496#0 51856496#1 51856496#2 51856496#3 51856496#4 51856496#5 51856496#6 51856496#8 204388144#0 204388144#1 -33102476 -36689751#2 10425609#0 10425609#1 201963537#1 -164051413 -653473569#5 25145013#0 -25145012#6 -25145012#5 -22716069#1 -22716069#0 -233675413#1 -233675413#0 -136728347#4"/>
    </vehicle>
    <vehicle arrivalPos="0.00" arrivalSpeed="0.00" depart="23756.00" departPos="0.00" id="carIn101901:1" type="default_004">
        <route edges="380271165#0 161680736 28593900 266885722 266885721#0 161680744#0 161680744#1 266887586 266887587 266887592 141058757 266887585#0 266887593#0 266887593#4 266887588#0 266887588#1 201926268#0 266887589#0 589179144 266887590#0 266887590#1 4268816#0 4268816#1 201956818#1 201956818#2 201956818#5 164051398 25188982#0 25192758 90587322#0 -10425611#1 -10425611#0 -10425611#0.35 -164051429#1 -164051429#0 -161678034#2 -161678034#2.33 -161678034#2.50 -161678034#1 -161678034#0 28119593 -24983010#2 -24983010#0 26973015 -145069303#4 -145069303#3 -145069303#1 -145069303#0 -32009683#1 -24972185#9 -24972185#8 -24972185#8.373 -24972185#1 -32978638#3 -32978638#0 32021112#0 168702040#1 168702040#2 168702040#3 168702040#4 168702039#0 168702039#1 32999434#0 24693977#0 24693977#1 315392062#0 -160314346#1 -160314346#0 24634505 24634510#0 24634510#1 24634510#6"/>
    </vehicle>
    <vehicle arrivalPos="28.27" arrivalSpeed="0.00" depart="23757.00" departPos="28.27" id="h14511c2:1" type="default_004">
        <route edges="-140834262#1"/>
    </vehicle>
    <vehicle arrivalPos="0.00" arrivalSpeed="0.00" depart="23758.00" departPos="0.00" id="carIn80177:1" type="default_004">
        <route edges="380271165#0 161680736 28593900 266885722 146973149 146973150#0 266885719 266885719.121 266885713"/>
    </vehicle>
    <vehicle arrivalPos="4.87" arrivalSpeed="0.00" depart="23761.00" departPos="124.65" id="h3531c1:1" type="default_004">
        <route edges="-24634413#2 -24634413#1 160314345#2 -24634414#1 201201950#4 386687239#0 386687239#1 202092676#0 -136436466 -315358251#1"/>
    </vehicle>
    <vehicle arrivalPos="0.00" arrivalSpeed="0.00" depart="23761.00" departPos="4.05" id="h12467c2:1" type="default_004">
        <route edges="25573267#1 202070429#1 202070429#2 202070429#3 202070429#4 28132836#0 -175761127#15 -175761127#14 -175761127#13 -175761127#11 -175761127#9 -175761127#7 -175761127#1 -26180725#2 28132852 549032836 39704924 39704922 266507540 27392720 27392724 266507546 266507536 27550700 27454737 266507535 32930761 146973160 266885714 266885716 266885719 266885719.121 266885713"/>
    </vehicle>
    <vehicle arrivalPos="200.00" arrivalSpeed="0.00" depart="23761.00" departPos="0.00" id="carIn55807:1" type="default_004">
        <route edges="380271165#0 161680736 28593900 266885722 266885721#0 161680744#0 161680744#1 266887586 266887587 266887592 141058757 266887585#0 266887593#0 266887593#4 266887588#0 266887588#1 201926268#0 266887589#0 589179144 266887590#0 266887590#1 4268816#0 4268816#1 201956818#1 201956818#2 201956818#5 164051398 25188982#0 25192758 90587322#0 -10425611#1 -10425611#0 -10425611#0.35 -164051429#1 -164051429#0 -161678034#2 -161678034#2.33 -161678034#2.50 -161678034#1 -161678034#0 28119593 -24983010#2 -24983010#0 26973015 -145069303#4 -145069303#3 -145069303#1 -145069303#0 -32009683#1 -24972185#9 -24972185#8 -24972185#8.373 -24972185#1 -32978638#3 -32978638#0 32021112#0 168702040#1 168702040#2 168702040#3 168702040#4 168702039#0 168702039#1 32999434#0 24693977#0 24693977#1 315392062#0 -160314346#1 -160314346#0 24634505 24634510#0 24634510#1 24634510#6"/>
    </vehicle>
    <vehicle arrivalPos="15.11" arrivalSpeed="0.00" depart="23763.00" departPos="15.11" id="h12325c1:1" type="default_004">
        <route edges="-391029010"/>
    </vehicle>
    <vehicle arrivalPos="200.00" arrivalSpeed="0.00" depart="23763.00" departPos="0.00" id="carIn28119:1" type="default_004">
        <route edges="380271165#0 161680736 28593900 266885722 266885721#0 161680744#0 161680744#1 266887586 266887587 266887592 141058757 266887585#0 266887593#0 266887593#4 266887588#0 266887588#1 201926268#0 266887589#0 589179144 266887590#0 266887590#1 141058765#0 141058765#1 141058765#2 141058765#2.33 103718178 -201278216#1 -201278214#1 -29458645 -29458645.13 -29458645.28 131118468#0 131118468#0.16 131118468#1 131118468#3 131118468#4 305390335 172515813 201278215 305390333 172515812#0 306086241 61940356 172515808 24495188 61940355 102818925 102818928#1 10425610#0 156923526#0 156923526#3 390282481 51856496#0 51856496#1 51856496#2 51856496#3 51856496#4 51856496#5 51856496#6 51856496#8 204388144#0 204388144#1 -33102476 -36689751#2 10425609#0 10425609#1 201963537#1 -164051413 -653473569#5 25145013#0 -25145012#6 -25145012#5 -22716069#1 -22716069#0 -233675413#1 -233675413#0 -136728347#4"/>
    </vehicle>
    <vehicle arrivalPos="0.00" arrivalSpeed="0.00" depart="23764.00" departPos="18.14" id="h9259c1:1" type="default_004">
        <route edges="-596846692 -25640150 30482638#4 -153692837#5 -153692837#4 -153692837#3 -153692837#2 -25596855#0 25596974#1 -25640093#2 25597372 202070429#6 202070429#7 201789794#0 201789794#3 308849647 266507550 30320943 23622426 -195073412#2 -195073412#1 -195073412#0 195073415 266507536 27550700 27454737 266507535 32930761 146973160 266885714 266885716 266885719 266885719.121 266885713"/>
    </vehicle>
    <vehicle arrivalPos="0.00" arrivalSpeed="0.00" depart="23769.00" departPos="40.07" id="h9389c1:1" type="default_004">
        <route edges="153692837#2 gneE134 -481432711 -41139095 -25596851#6 -25596851#5 -25596851#4 -25596851#3 -25596851#2 -25596851#1 -25596851#0 201880159#1 201880159#2 201789796#0.31 201789796#1 30320943 378466167 266507548 257907861 151167740 266507555 266507558 39704924 39704922"/>
    </vehicle>
    <vehicle arrivalPos="0.00" arrivalSpeed="0.00" depart="23769.00" departPos="0.00" id="carIn14017:1" type="default_004">
        <route edges="266507542 39704923 266507553 48395120#0 48395120#1 32976755 327975020 327975024 327975024.20 327975024.51 327975019 146973189 195073416 195073418#0 195073418#1 266507539 27392718 27392719 4058141 266507543 266507532 327975022 327975022.30 327975022.62 39704920 151167740 266507555 266507558 39704924 39704922 266507540 27392720 27392724 266507546 266507536 27550700 27454737 266507535 32930761 146973160 266885714 266885716 266885719 266885719.121 266885713"/>
    </vehicle>
    <vehicle arrivalPos="0.00" arrivalSpeed="0.00" depart="23769.00" departPos="0.00" id="carIn72920:1" type="default_004">
        <route edges="380271165#0 161680736 28593900 266885722 266885721#0 161680744#0 161680744#1 266887586 266887587 266887592 141058757 266887585#0 266887593#0 266887593#4 266887588#0 266887588#1 201926268#0 266887589#0 589179144 266887590#0 266887590#1 4268816#0 4268816#1 201956818#1 201956818#2 201956818#5 164051398 25188982#0 25192758 90587322#0 -10425611#1 -10425611#0 -10425611#0.35 -164051429#1 -164051429#0 -161678034#2 -161678034#2.33 -161678034#2.50 -161678034#1 -161678034#0 28119593 -24983010#2 -24983010#0 26973015 -145069303#4 -145069303#3 -145069303#1 -145069303#0 -32009683#1 -24972185#9 -24972185#8 -24972185#8.373 -24972185#1 -32978638#3 -32978638#0 32021112#0 168702040#1 168702040#2 168702040#3 168702040#4 168702039#0 168702039#1 32999434#0 24693977#0 24693977#1 315392062#0 -160314346#1 -160314346#0 24634505 24634510#0 24634510#1 24634510#6"/>
    </vehicle>
    <vehicle arrivalPos="6.92" arrivalSpeed="0.00" depart="23769.98" departPos="0.00" id="carIn125376:1" type="default_004">
        <route edges="138300617#0 37681592#0 37681592#1 37681592#2 37681592#3 37681592#4 37681592#5 37681592#6 39698489 39698490 -25623125#2 25623126#0 25623126#2 -391029010 391208991 25626614#0 25626614#1 25626614#2 391029007 391029008#0 391029008#1 391029008#1.77 391029008#2 4942575#0 4942575#1 4942575#2 31342349#0 31342349#3 4942408 54858973#0 54858973#0.62 54858973#1 54858973#2 29119849#0 29119849#1 29119850 29119850.70 30399662#0 30399662#1 54169280#0 54169280#1 54169280#2 54169280#3 54169280#4 54169280#6 386687232#0 -315358251#1"/>
    </vehicle>
    <vehicle arrivalPos="46.82" arrivalSpeed="0.00" depart="23770.09" departPos="0.00" id="carIn13642:1" type="default_004">
        <route edges="306793669 32976752 28091398 327975022 327975022.30 327975022.62 39704919 28091397 542650138 266507547 -201789796#1 -201789796#0 -201880159#1 -201880159#0 25625974 202070431 -201789799#2 -201789799#1 -201789799#0 -30482638#13 -30482638#11 -30482638#10 -30482638#9 -30482638#8 -30482638#3 -30482638#2 -201926266 -90587320 -37480109 -90587323 -10425611#1 -10425611#0 -10425611#0.35 4324827#0 203971381#0 203971381#1 4324820 164051399 201956817 33279254#1 556434727 542630099 354967545#0.45 354967545#1 141058765#0 141058765#1 141058765#2 141058765#2.33 31624236#0 172700927#0 -48742425#2 -48742425#1 -48742425#0 -205182378#15 -205182378#14 -205182378#13 -20975943#2 20975954#1 -28269810#3 -28269810#2 -28269810#1 -163586462 -4819338#4 -4819338#3 -4819338#1 -4819338#0 266607803#0 266607803#1 266607803#2 266607792#0"/>
    </vehicle>
    <vehicle arrivalPos="0.00" arrivalSpeed="0.00" depart="23771.00" departPos="0.00" id="carIn45271:1" type="default_004">
        <route edges="380271165#0 161680736 28593900 266885722 266885721#0 161680744#0 161680744#1 266887586 266887587 266887592 141058757 266887585#0 266887593#0 266887593#4 266887588#0 266887588#1 201926268#0 266887589#0 589179144 266887590#0 266887590#1 4268816#0 4268816#1 201956818#1 201956818#2 201956818#5 164051398 25188982#0 25192758 203971378#0 37480109 90587320 90587320.64 201926266 30482638#0 30482638#3 30482638#4 30482638#9 30482638#10 30482638#11 30482638#12 201789799#0 201789799#1 201789799#2 201789798#0 201789798#1 202070435#0 10941820 201880159#0 201880159#1 201880159#2 201789796#0.31 201789796#1 30320943 378466167 266507548 32976755 327975020 327975024 327975024.20 327975024.51 327975019 28132017 32976751 32976751.35 306793670#0 306793670#1"/>
    </vehicle>
    <vehicle arrivalPos="0.00" arrivalSpeed="0.00" depart="23772.00" departPos="0.00" id="carIn42783:1" type="default_004">
        <route edges="380271165#0 161680736 28593900 266885722 146973149 146973150#0 266885719 266885719.121 266885713"/>
    </vehicle>
    <vehicle arrivalPos="0.00" arrivalSpeed="0.00" depart="23773.00" departPos="81.30" id="h12793c2:1" type="default_004">
        <route edges="391208990 391029009#0 391029009#0.69 25626616#1 25626616#1.25 -25626616#1 -25626616#1.26 542650763#2 391029008#0 391029008#1 391029008#1.77 391029008#2 -33280103#5 -26176222#1 -26176222#0 25797433#0 25797433#1 25797433#2 25797433#3 29238187#0 29238187#1 29238187#2 -29027727#2 -201444272#4 -201444272#2 -201444272#0 30404130#0 30404130#1 64464420 25955089 64464430 32009826#0 32009826#1 31342305 30404124 266567307#0 233673425#0 233673425#1 24977590#0 24977590#1 266565299 266565295#0 266565295#1 266565295#2 266565295#3 266565295#4 266565295#5 32999435 32124637#0 32124637#1 168702040#1 168702040#2 168702040#3 168702040#4 168702039#0 168702039#1 32999434#0 201089423#0 201089423#2 32124744 32124743 285716192#0 285716192#0.83 201963535 -104010328 -25145012#6 -25145011#0 -653473569#2 -653473569#1 -653473569#0 -653473568#1 -653473568#0 -18813598#8"/>
    </vehicle>
    <vehicle arrivalPos="0.00" arrivalSpeed="0.00" depart="23773.00" departPos="0.00" id="carIn31074:1" type="default_004">
        <route edges="380271165#0 161680736 28593900 266885722 266885721#0 161680744#0 161680744#1 266887586 266887587 266887592 141058757 266887585#0 266887593#0 20266190#0 -20266191 -201926269#0 -389840423#0 -23184252#1 -23184252#0 -37282688#5 -37282688#4 -37282688#3 -37282688#1 29458100#0 -201278214#1 -29458645 -29458645.13 -29458645.28 131118468#0 131118468#0.16 131118468#1 131118468#3 131118468#4 305390335 172515813 201278215 305390324 -39649533 32923867#1 32923867#1.96 32923867#2 32923867#3 32923867#4 379723624#0 379723624#1 130996518#0 -233673423 -32201044#2 -32201044#1 145069336#0 145069336#1 145069336#2 145069280#0 -145069391 145069286#0 32229741 32229742#1 32229742#3 32229742#4 32229742#5 145069311#0 145069316#0 145069316#1 145069313#2 -103512667#2 -103512667#1 -103512667#0 103512671 -33102477 18909061#0 389831363#0 32061928#2 32061928#4 32061928#5 389840420#3 29458097#0 145069300#1 29238184#0 51856492#0 29027839#0 29027839#2 31343367#0 24537982#0 24537982#2 24537982#3 24537982#4 266565302 380273343 29238186 140684000#0 140684000#1 203127020#0 200741048 24890450 248012815#1 30399325 30399322#1.56 25367735#1 -25344437#5"/>
    </vehicle>
    <vehicle arrivalPos="0.00" arrivalSpeed="0.00" depart="23773.00" departPos="0.00" id="carIn59039:1" type="default_004">
        <route edges="380271165#0 161680736 28593900 266885722 266885721#0 161680744#0 161680744#1 266887586 266887587 266887592 141058757 266887585#0 266887593#0 266887593#4 266887588#0 266887588#1 201926268#0 266887589#0 589179144 266887590#0 266887590#1 4268816#0 4268816#1 201956818#1 201956818#2 201956818#5 164051398 25188982#0 25192758 90587322#0 -10425611#1 -10425611#0 -10425611#0.35 -164051429#1 -164051429#0 -161678034#2 -161678034#2.33 -161678034#2.50 -161678034#1 -161678034#0 28119593 -24983010#2 -24983010#0 26973015 -145069303#4 -145069303#3 -145069303#1 -145069303#0 -32009683#1 -24972185#9 -24972185#8 -24972185#8.373 -24972185#1 -32978638#3 -32978638#0 32021112#0 168702040#1 168702040#2 168702040#3 168702040#4 168702039#0 168702039#1 32999434#0 24693977#0 24693977#1 315392062#0 -160314346#1 -160314346#0 24634505 24634510#0 24634510#1 24634510#6"/>
    </vehicle>
    <vehicle arrivalPos="0.00" arrivalSpeed="0.00" depart="23774.00" departPos="0.00" id="carIn62576:1" type="default_004">
        <route edges="380271165#0 161680736 28593900 266885722 146973149 146973150#0 266885719 266885719.121 266885713"/>
    </vehicle>
    <vehicle arrivalPos="0.00" arrivalSpeed="0.00" depart="23776.00" departPos="0.00" id="carIn42810:1" type="default_004">
        <route edges="266507542 -28132852 26180725#1 -36291830 30320943 378466167 266507548 257907861 151167740 266507555 266507554 266507557#0 266507557#1 4058127#1 25623125#0 25623125#2 25794504#0"/>
    </vehicle>
    <vehicle arrivalPos="0.00" arrivalSpeed="0.00" depart="23776.59" departPos="0.00" id="carIn5403:1" type="default_004">
        <route edges="221257626.144 39697943 266507545 266507540 27392720 27392724 23622443 195073412#0 195073412#1 195073412#2 195073413 327975020 327975024 327975024.20 327975024.51 327975019 28132017 32976751 32976751.35 146973222 39577538 39577540 638602238 -138300617#4 37681592#0 37681592#1 37681592#2 37681592#3 37681592#4 37681592#5 37681592#6 39698489 39698490 25794504#0"/>
    </vehicle>
    <vehicle arrivalPos="75.40" arrivalSpeed="0.00" depart="23777.00" departPos="0.00" id="carIn13158:1" type="default_004">
        <route edges="450072140 28593900 266885722 266885721#0 161680744#0 161680744#1 266887586 266887587 266887592 141058757 266887585#0 266887593#0 266887593#4 266887588#0 266887588#1 201926268#0 266887589#0 589179144 266887590#0 266887590#1 4268816#0 4268816#1 201956818#1 201956818#2 201956818#5 164051398 25188982#0 25192758 90587322#0 -10425611#1 -10425611#0 -10425611#0.35 -164051429#1 -164051429#0 -161678034#2 -161678034#2.33 -161678034#2.50 -161678034#1 -161678034#0 28119593 -24983010#2 -24983010#0 26973015 -145069303#4 -145069303#3 -145069303#1 -145069303#0 -32009683#1 -24972185#9 -24972185#8 -24972185#8.373 -24972185#1 -32978638#3 -32978638#0 32021112#0 168702040#1 168702040#2 -24608846#1 -24608846#0 -160314345#5 -315358245 -202092675.36 -4942389#1 -4942389#0 -136436466 -315358251#1"/>
    </vehicle>
    <vehicle arrivalPos="200.00" arrivalSpeed="0.00" depart="23778.00" departPos="135.17" id="h3161c1:1" type="default_004">
        <route edges="24634508 315392062#0 -160314346#1 -160314346#0 24634505 24634510#0 24634510#1 24634510#6"/>
    </vehicle>
    <vehicle arrivalPos="119.14" arrivalSpeed="0.00" depart="23778.00" departPos="0.00" id="carIn632:1" type="default_004">
        <route edges="450072140 28593900 266885722 266885721#0 161680744#0 161680744#1 266887586 266887587 266887592 141058757 266887585#0 266887593#0 266887593#4 266887588#0 266887588#1 201926268#0 266887589#0 589179144 266887590#0 266887590#1 4268816#0 4268816#1 201956818#1 201956818#2 201956818#5 164051398 25188982#0 25192758 90587322#0 -10425611#1 -10425611#0 -10425611#0.35 -164051429#1 -164051429#0 -161678034#2 -161678034#2.33 -161678034#2.50 -161678034#1 -161678034#0 28119593 -24983010#2 -24983010#0 26973015 -145069303#4 -145069303#3 -145069303#1 -145069303#0 -32009683#1 -24972185#9 -24972185#8 -24972185#8.373 -24972185#1 -32978638#3 -32978638#0 32021112#0 168702040#1 168702040#2 -24608846#1 -24608846#0 -160314345#5 -315358245 -202092675.36 -4942389#1 -4942389#0 -136436466 -315358251#1"/>
    </vehicle>
    <vehicle arrivalPos="0.00" arrivalSpeed="0.00" depart="23778.00" departPos="0.00" id="carIn103843:1" type="default_004">
        <route edges="380271165#0 161680736 28593900 266885722 266885721#0 161680744#0 161680744#1 266887586 266887587 266887592 141058757 266887585#0 266887593#0 266887593#4 266887588#0 266887588#1 201926268#0 266887589#0 589179144 266887590#0 266887590#1 4268816#0 4268816#1 201956818#1 201956818#2 201956818#5 164051398 25188982#0 25192758 203971378#0 37480109 90587320 90587320.64 201926266 30482638#0 30482638#3 25640150 -92026769#12 -92026769#11 -92026769#5 -92026769#3 -92026769#2 -92026769#1 -92026769#0 -25895947#1 -25895947#0 202070435#2 202070435#5 202070435#5.37 202070435#5.70 202070435#9 202070435#12 202070435#13"/>
    </vehicle>
    <vehicle arrivalPos="3.97" arrivalSpeed="0.00" depart="23779.00" departPos="0.00" id="carIn43674:1" type="default_004">
        <route edges="450072140 28593900 266885722 266885721#0 161680744#0 161680744#1 266887586 266887587 266887592 141058757 266887585#0 266887593#0 266887593#4 266887588#0 266887588#1 201926268#0 266887589#0 589179144 266887590#0 266887590#1 4268816#0 4268816#1 201956818#1 201956818#2 201956818#5 164051398 25188982#0 25192758 203971378#0 37480109 90587320 90587320.64 201926266 30482638#0 30482638#3 30482638#4 -153692837#5 -153692837#4 -153692837#3 -153692837#2 -25596855#0 25596974#1 -25640093#2 25597372 202070429#6 -25895945#2 -175761127#7 -175761127#1 -36291830 30320943 378466167 266507548 32976755 327975020 327975024 327975024.20 327975024.51"/>
    </vehicle>
    <vehicle arrivalPos="11.20" arrivalSpeed="0.00" depart="23779.00" departPos="14.40" id="randUni3397:1" type="random_004">
        <route edges="386687235 42745545#0 42745545#2 42745545#3 42745545#4 42745545#5 42745545#5.128 42745545#6 28639688#0 28639688#1 28639688#3 24890429#0 24890429#1 24890429#2 -203127020#4 -140684000#1 -140684000#0 380273341 140684001 -233673425#1 -233673425#0 -266567307#1 -30404124 30417892 64464397#0 64464432#2 -24991571 -24991573 -11014139#1 145069303#0 145069303#1 145069303#2 145069303#4 -26973015 -24692391#3 -24692391#1 144659495 144659489 28268963"/>
    </vehicle>
    <vehicle arrivalPos="33.33" arrivalSpeed="0.00" depart="23779.00" departPos="43.75" id="randUni31133:1" type="random_004">
        <route edges="137463474#0 25797315#0 25797315#1 25797433#2 25797433#3 29238187#0 29238187#1 29238187#2 -29027727#2 -201444272#4 -201444272#2 -201444272#0 30404130#0 30404130#1 64464420 25955089 64464430 32009826#0 32009826#1 31342305 30404124 266567307#0 233673425#0 233673425#1 24977590#0 24977590#1 266565299 266565295#0 266565295#1 266565295#2 266565295#3 266565295#4 266565295#5 32999435 32124637#0 32124637#1 168702040#1 168702040#2 168702040#3 168702040#4 168702039#0 168702039#1 32999434#0 24693977#0 24693977#1 315392062#0 -160314346#1 -160314346#0 24634505 24634510#0 24634510#1 24634510#6"/>
    </vehicle>
    <vehicle arrivalPos="0.00" arrivalSpeed="0.00" depart="23779.09" departPos="0.00" id="carIn47835:1" type="default_004">
        <route edges="306793669 32976752 28091398 327975022 327975022.30 327975022.62 39704919 28091397 542650138 266507547 -266507550 -308849647 -201789794#3 -201789794#2 -202070429#9 -202070429#6 -202070429#5 -202070429#4 -202070429#3 -202070429#2 -202070429#1 -202070429#0 151167728 257907859#0 257907859#1 257907860#0 257907860#1.168 305390325#0 305390325#3 266567304#0 266567301#1 64464420 25955089 64464430 32009826#0 32009826#1 31342305 30404124 266567307#0 233673425#0 233673425#1 24977590#0 24977590#1 266565299 266565295#0 266565295#1 266565295#2 266565295#3 266565295#4 266565295#5 32999435 32124637#0 32124637#1 168702040#1 168702040#2 168702040#3 168702040#4 168702039#0 168702039#1 32999434#0 24693977#0 24693977#1 315392062#0 -160314346#1 -160314346#0 24634505 24634510#0 24634510#1 24634510#6"/>
    </vehicle>
    <vehicle arrivalPos="200.00" arrivalSpeed="0.00" depart="23781.00" departPos="104.42" id="h834c1:1" type="default_004">
        <route edges="77912241 32200762#5 29027840 77912237 32200414#0 -51856492#2 -29238184#1 -145069300#1 -145069300#1.112 -29458097#2 -32978638#3 -32978638#0 32021112#0 168702040#1 168702040#2 168702040#3 168702040#4 168702039#0 168702039#1 32999434#0 24693977#0 24693977#1 315392062#0 -160314346#1 -160314346#0 24634505 24634510#0 24634510#1 24634510#6"/>
    </vehicle>
    <vehicle arrivalPos="0.00" arrivalSpeed="0.00" depart="23781.09" departPos="0.00" id="carIn93747:1" type="default_004">
        <route edges="306793669 32976752 28091398 327975022 327975022.30 327975022.62 39704919 28091397 542650138 266507547 -266507550 -308849647 -201789794#3 -201789794#2 -202070429#9 -202070429#6 -202070429#5 -202070429#4 -202070429#3 -202070429#2 -202070429#1 -202070429#0 151167728 257907859#0 257907859#1 257907860#0 257907860#1.168 305390325#0 305390325#3 266567304#0 266567301#1 64464420 25955089 64464430 32009826#0 32009826#1 31342305 30404124 266567307#0 233673425#0 233673425#1 24977590#0 24977590#1 266565299 266565295#0 266565295#1 266565295#2 266565295#3 266565295#4 266565295#5 32999435 32124637#0 32124637#1 168702040#1 168702040#2 168702040#3 168702040#4 168702039#0 168702039#1 32999434#0 24693977#0 24693977#1 315392062#0 -160314346#1 -160314346#0 24634505 24634510#0 24634510#1 24634510#6"/>
    </vehicle>
    <vehicle arrivalPos="79.33" arrivalSpeed="0.00" depart="23782.00" departPos="0.00" id="carIn117157:1" type="default_004">
        <route edges="450072140 28593900 266885722 266885721#0 161680744#0 161680744#1 266887586 266887587 266887592 141058757 266887585#0 266887593#0 266887593#4 266887588#0 266887588#1 201926268#0 266887589#0 589179144 266887590#0 266887590#1 4268816#0 4268816#1 201956818#1 201956818#2 201956818#5 164051398 25188982#0 25192758 90587322#0 -10425611#1 -10425611#0 -10425611#0.35 -164051429#1 -164051429#0 -161678034#2 -161678034#2.33 -161678034#2.50 -161678034#1 -161678034#0 28119593 -24983010#2 -24983010#0 26973015 -145069303#4 -145069303#3 -145069303#1 -145069303#0 -32009683#1 -24972185#9 -24972185#8 -24972185#8.373 -24972185#1 -32978638#3 -32978638#0 32021112#0 168702040#1 168702040#2 -24608846#1 -24608846#0"/>
    </vehicle>
    <vehicle arrivalPos="82.38" arrivalSpeed="0.00" depart="23783.35" departPos="0.00" id="carIn56926:1" type="default_004">
        <route edges="266885717 146973183#0 450072140 28593900 266885722 266885721#0 161680744#0 161680744#1 266887586 266887587 266887592 141058757 266887585#0 266887593#0 266887593#4 266887588#0 266887588#1 201926268#0 266887589#0 589179144 266887590#0 266887590#1 4268816#0 4268816#1 201956818#1 201956818#2 201956818#5 164051398 25188982#0 25192758 90587322#0 -10425611#1 -10425611#0 -10425611#0.35 -164051429#1 -164051429#0 -161678034#2 -161678034#2.33 -161678034#2.50 -161678034#1 -161678034#0 28119593 -24983010#2 -24983010#0 26973015 -145069303#4 -145069303#3 -145069303#1 -145069303#0 -32009683#1 -24972185#9 -24972185#8 -24972185#8.373 -24972185#1 -32978638#3 -32978638#0 32021112#0 168702040#1 168702040#2 168702040#3 168702040#4 168702039#0 168702039#1 32999434#0 24693977#0 24693977#1 315392062#0 -160314346#1 -160314346#0 24634505 24634510#0 24634510#1 24634510#6"/>
    </vehicle>
    <vehicle arrivalPos="58.25" arrivalSpeed="0.00" depart="23783.35" departPos="0.00" id="carIn62387:1" type="default_004">
        <route edges="266885717 266885715 266885715.39 266885718#0 266885718#1 266885720 32930763 32930762 266507537 27454740 27454730 266507538 266507539 27392718 27392719 4058141 266507543 266507532 327975022 327975022.30 327975022.62 39704920 151167740 266507555 266507554 266507557#0 266507557#1 4058127#1 25623125#0 25623125#2 25794504#0"/>
    </vehicle>
    <vehicle arrivalPos="0.00" arrivalSpeed="0.00" depart="23784.35" departPos="0.00" id="carIn57164:1" type="default_004">
        <route edges="266885717 266885715 266885715.39 266885718#0 266885718#1 266885720 32930763 32930762 266507537 27454740 27454730 266507538 266507539 27392718 27392719 4058141 266507543 266507532 327975022 327975022.30 327975022.62 39704920 151167740 266507555 266507554 266507557#0 266507557#1 4058127#1 25623125#0 25623125#2 25794504#0"/>
    </vehicle>
    <vehicle arrivalPos="0.00" arrivalSpeed="0.00" depart="23784.35" departPos="0.00" id="carIn105040:1" type="default_004">
        <route edges="266885717 266885715 266885715.39 266885718#0 266885718#1 266885720 32930763 32930762 266507537 27454740 27454730 146973176#0 146973176#1 -195073416 195073423 32976751 32976751.35 306793670#0 306793670#1"/>
    </vehicle>
    <vehicle arrivalPos="41.42" arrivalSpeed="0.00" depart="23786.00" departPos="106.91" id="h159c2:1" type="default_004">
        <route edges="-32999434#1 -24634414#5 -37386279 -24634413#2 -24634413#1 -160314345#1 -160314345#0 -160314346#1 -160314346#0 24634505 24634510#0 24634510#1 24634510#6"/>
    </vehicle>
    <vehicle arrivalPos="1.10" arrivalSpeed="0.00" depart="23786.00" departPos="41.02" id="randUni4084:1" type="random_004">
        <route edges="205182378#13 205182378#14 205182378#15 48742425#0 48742425#1 48742425#2 32881076#0 37282369 354967544#0 354967544#1 354967544#2 4268816#0 4268816#1 201956818#1 201956818#2 201956818#5 164051398 203971379#0 203971379#1 -54154922#1 -54154922#0 -24977473#2 164051410#0 164051410#1 32199969#0 32199969#2 32199969#5 32199989#0 32199989#1 323248156#0 266567301#1 64464420 25955089 64464430 32009826#0 32009826#1 31342305 30404124 266567307#0 233673425#0 233673425#1 24977590#0 24977590#1 266565299 266565295#0 266565295#1 266565295#2 266565295#3 25955175#0 24608842#0 24608842#1 24978943#0 42745545#2 42745545#3"/>
    </vehicle>
    <vehicle arrivalPos="201.69" arrivalSpeed="0.00" depart="23790.00" departPos="0.00" id="carIn75303:1" type="default_004">