<?xml version="1.0" encoding="UTF-8"?>
<!-- generated on 2022-03-28 18:26:37.847754 by cutRoutes.py UNKNOWN
  options: ingolstadt_reduced.net.xml /home/momo/dateien/Studies/thesis/workspace/InTAS/scenario/routes/InTAS_006.rou.xml <doubleminus>routes-output routes_test/InTAS_006.rou.xml <doubleminus>orig-net ../ingolstadt.net.xml
-->
<routes xmlns:xsi="http://www.w3.org/2001/XMLSchema-instance" xsi:noNamespaceSchemaLocation="http://sumo.dlr.de/xsd/routes_file.xsd">
    <vType color="red" id="default_006" vClass="passenger"/>
    <vType color="blue" id="random_006" vClass="passenger"/>
    <vehicle arrivalPos="0.00" arrivalSpeed="0.00" depart="27754.00" departPos="0.81" id="h8986c2:1" type="default_006">
        <route edges="-25597196#3 -25597196#2 -25597196#1 42745460 42745461#0 42745461#1 54154922#0 54154922#1 26071515#0 26071515#1 4324820 164051399 201956817 33279254#1 556434727 542630099 354967545#0.45 354967545#1 141058765#0 141058765#1 141058765#2 141058765#2.33 103718178 -201278216#1 -201278214#1 -29458645 -29458645.13 -29458645.28 131118468#0 131118468#0.16 131118468#1 131118468#3 131118468#4 305390335 201278218#0 306396705 174321447 58295043 32923863#2 266607804#0 266607804#1 266607804#2 266607803#0 266607803#1 266607803#2 266607792#0"/>
    </vehicle>
    <vehicle arrivalPos="38.36" arrivalSpeed="0.00" depart="27754.00" departPos="26.08" id="h21453c1:5" type="default_006">
        <route edges="103687353 32200983#0 32200983#3 24982688#0 24982688#0.12 24982688#2 24982688#3 145069294#0 32201042 32201044#0 32201044#1 32201044#2 233673423 28418763 -379723624#1 -379723624#0 -32923867#4 -32923867#3 -32923867#2 -32923867#1 -32923867#0 130996520 130996520.58 172519650 306396705 174321447 58295043 32923863#2 266607804#0 266607804#1 266607804#2 266607803#0 266607803#1 266607803#2 266607792#0"/>
    </vehicle>
    <vehicle arrivalPos="0.00" arrivalSpeed="0.00" depart="27755.00" departPos="0.00" id="carIn118606:1" type="default_006">
        <route edges="380271165#0 161680736 28593900 266885722 266885721#0 161680744#0 161680744#1 266887586 266887587 266887592 141058757 266887585#0 266887593#0 266887593#4 266887588#0 266887588#1 201926268#0 266887589#0 589179144 266887590#0 266887590#1 4268816#0 4268816#1 201956818#1 201956818#2 201956818#5 164051398 203971379#0 203971379#1 -54154922#1 -54154922#0 -42745461#1 -42745461#0 -42745460 25597196#0 25597196#2 25597196#3 25597196#4 25597196#5 25597196#6 -153692837#3 -153692837#2 -25596855#0 25596974#1 -25640093#2 25597372 202070429#6 202070429#7 201789794#0 201789794#3 308849647 266507550 30320943 378466167 266507548 257907861 151167740 266507555 266507558 39704924 39704922"/>
    </vehicle>
    <vehicle arrivalPos="0.00" arrivalSpeed="0.00" depart="27758.00" departPos="0.00" id="carIn110968:1" type="default_006">
        <route edges="380271165#0 161680736 28593900 266885722 266885721#0 161680744#0 161680744#1 266887586 266887587 266887592 141058757 266887585#0 266887593#0 20266190#0 20266190#2 72883541#1 72883541#2 20975939#0 201926265#1 20588624#0 20588624#1 20588624#2 205182378#7 205182378#8 -28269810#6 -28269810#4 -20975954#1 -20975943#1 -20975943#0 -20975948#0 23184317 29458101 27893434#1 27893434#2 151167768#1 172515814#0 172515814#1 305390333 172515812#0 306086241 61940356 172515808 24495188 61940355 102818925 102818928#1 10425610#0 156923526#0 156923526#3 390282481 51856496#0 51856496#1 51856496#2 51856496#3 51856496#4 51856496#5 51856496#6 51856496#8 204388144#0 204388144#1 18909061#0 389831363#0 32061928#2 32061928#4 32061928#5 389840420#3 24972185#0 24972185#2 24972185#2.111 24972185#9 24537982#0 24537982#2 24537982#3 24537982#4 266565302 380273343 -233673425#1 -233673425#0 -266567307#1 -30404124 30417892 266567308#0 64464384#1 32009827 266567303 266567294#0 31342064#1 31342064#1.83 31894763#0 137463475#0 116765457#0 116765457#1 28132014#0 28132014#1 42745460 42745461#0 42745461#1 54154921#0 54154921#3 201926266 30482638#0 30482638#3 25640150 -92026769#12 -92026769#11 -92026769#5 -92026769#3 -92026769#2 -92026769#1 -92026769#0 -25895947#1 -25895947#0 -202070435#1 10941820 201880159#0 201880159#1 201880159#2 201789796#0.31 201789796#1 30320943 378466167 266507548 32976755 327975020 327975024 327975024.20 327975024.51 327975019 28132017 32976751 32976751.35 306793670#0 306793670#1"/>
    </vehicle>
    <vehicle arrivalPos="230.00" arrivalSpeed="0.00" depart="27760.00" departPos="0.00" id="carIn73728:1" type="default_006">
        <route edges="380271165#0 161680736 28593900 266885722 266885721#0 161680744#0 161680744#1 266887586 266887587 266887592 141058757 266887585#0 266887593#0 20266190#0 20266190#2 -72883541#0 30054829#0 201926265#5 201278209#0 -20405628#4 -20405628#3"/>
    </vehicle>
    <vehicle arrivalPos="230.00" arrivalSpeed="0.00" depart="27762.00" departPos="0.00" id="carIn52554:1" type="default_006">
        <route edges="380271165#0 161680736 28593900 266885722 266885721#0 161680744#0 161680744#1 266887586 266887587 266887592 141058757 266887585#0 266887593#0 20266190#0 20266190#2 -72883541#0 30054829#0 201926265#5 201278209#0 -20405628#4 -20405628#3"/>
    </vehicle>
    <vehicle arrivalPos="25.00" arrivalSpeed="0.00" depart="27764.00" departPos="0.00" id="carIn104691:1" type="default_006">
        <route edges="380271165#0 161680736 28593900 266885722 266885721#0 161680744#0 161680744#1 266887586 266887587 266887592 141058757 266887585#0 266887593#0 266887593#4 266887588#0 266887588#1 -201926269#3 -201926269#2 -201926269#1 -201926269#0 -72883541#3 -72883541#2 -72883541#1 -20266190#2 -20266190#1 -266887593#3 -266887591 -141058757 111525330#0 350320331#0 266885723#0 161680739 27453586#0 gneE119"/>
    </vehicle>
    <vehicle arrivalPos="38.16" arrivalSpeed="0.00" depart="27766.00" departPos="0.00" id="carIn70253:1" type="default_006">
        <route edges="380271165#0 161680736 28593900 266885722 266885721#0 161680744#0 161680744#1 266887586 266887587 266887592 141058757 266887585#0 266887593#0 20266190#0 20266190#2 72883541#1 20266189#0 20266189#1 -201926265#2 -201926265#1 -201926265#0 -23184252#1 -23184252#0 -37282688#5 -37282688#4 -37282688#3 -37282688#1 29458100#0 -201278214#1 -29458645 -29458645.13 -29458645.28 131118468#0 131118468#0.16 131118468#1 131118468#3 131118468#4 305390335 172515813 201278215 305390333 172515812#0 306086241 61940356 172515808 24495188 61940355 201969576#0 201969576#1 201969576#2 201969576#5 201969576#6 201969576#7 29497467 124812856#0 124812856#1 201956821#0 201956821#1.68 201963537#1 -164051413 -653473569#5 -653473569#4 -653473569#2 -22716069#2 -22716069#1 -22716069#0 -233675413#1 -233675413#0 -136728347#4"/>
    </vehicle>
    <vehicle arrivalPos="19.59" arrivalSpeed="0.00" depart="27766.00" departPos="0.00" id="carIn91034:1" type="default_006">
        <route edges="380271165#0 161680736 28593900 266885722 266885721#0 161680744#0 161680744#1 266887586 266887587 266887592 141058757 266887585#0 266887593#0 20266190#0 -20266191 201926269#1 20588641#0 28124729#0 354967544#1 354967544#2 4268816#0 4268816#1 201956818#1 201956818#2 201956818#5 164051398 203971379#0 203971379#1 -54154922#1 -54154922#0 -24977473#2 164051410#0 164051410#1 32199969#0 23009002#0 28132014#0 28132014#1"/>
    </vehicle>
    <vehicle arrivalPos="0.00" arrivalSpeed="0.00" depart="27767.00" departPos="29.91" id="h15216c1:1" type="default_006">
        <route edges="39704293#0.414 -201956816#6 -201956816#5 -201956816#4 -201956816#3 -201956816#2 -201956816#0 -201953163#2 -201953161#7 -201953161#6 140834255#0 201953160#0 201953160#3 542630099 354967545#0.45 354967545#1 141058765#0 141058765#1 141058765#2 141058765#2.33 103718178 -201278216#1 -201278214#1 -29458645 -29458645.13 -29458645.28 131118468#0 131118468#0.16 131118468#1 131118468#3 131118468#4 305390335 172515813 201278215 305390333 172515812#0 306086241 61940356 172515808 24495188 61940355 201969576#0 201969576#1 201969576#2 201969576#5 201969576#6 201969576#7 29497467 124812856#0 124812856#1 201956821#0 201956821#1.68 201963537#1 -164051413 -653473569#5 25145013#0 -25145012#6 -25145012#5 -22716069#1 -22716069#0 -233675413#1 -233675413#0 -136728347#4"/>
    </vehicle>
    <vehicle arrivalPos="46.70" arrivalSpeed="0.00" depart="27767.59" departPos="0.00" id="carIn27320:1" type="default_006">
        <route edges="221257626.144 39697943 146973153 39530041 39530040 266507557#1 172368742 172368742.57 172368742.75 172368742.185 542650763#0 542650763#1.78 542650763#2 391029008#0 391029008#1 391029008#1.77 391029008#2 -33280103#5 -26176222#1 -26176222#0 -144657087#3 -26176225#5 -26176225#4 -26176225#3 -26176225#2 -26176225#1 -26176225#0 274823622#2 25895966#0 25895966#6 29238188#3 152077572#0 152077572#2 152077572#2.79 54858974 4942408 54858973#0 54858973#0.62 54858973#1 54858973#2 29119849#0 29119849#1 29119850 29119850.70 30399662#0 30399662#1 54169280#0 54169280#1 54169280#2 54169280#3 54169280#4 54169280#6 386687232#0 -315358251#1"/>
    </vehicle>
    <vehicle arrivalPos="25.00" arrivalSpeed="0.00" depart="27768.00" departPos="0.00" id="carIn77129:1" type="default_006">
        <route edges="380271165#0 161680736 28593900 266885722 266885721#0 161680744#0 161680744#1 266887586 266887587 266887592 141058757 266887585#0 266887593#0 266887593#4 266887588#0 266887588#1 -201926269#3 -201926269#2 -201926269#1 -201926269#0 -72883541#3 -72883541#2 -72883541#1 -20266190#2 -20266190#1 -266887593#3 -266887591 -141058757 111525330#0 350320331#0 266885723#0 161680739 27453586#0 gneE119"/>
    </vehicle>
    <vehicle arrivalPos="230.00" arrivalSpeed="0.00" depart="27768.09" departPos="0.00" id="carIn124173:1" type="default_006">
        <route edges="306793669 32976752 28091398 327975022 327975022.30 327975022.62 39704919 28091397 542650138 266507547 -201789796#1 -201789796#0 -201880159#1 -201880159#0 25625974 202070431 -201789799#2 -201789799#1 -201789799#0 -30482638#13 -30482638#11 -30482638#10 -30482638#9 -30482638#8 -30482638#3 -30482638#2 -201926266 -90587320 -37480109 -90587323 -10425611#1 -10425611#0 -10425611#0.35 4324827#0 203971381#0 203971381#1 4324820 164051399 201956817 33279254#1 556434727 542630099 354967545#0.45 354967545#1 141058765#0 141058765#1 141058765#2 141058765#2.33 31624236#0 172700927#0 -48742425#2 -48742425#1 -48742425#0 -205182378#15 -205182378#14 -205182378#13 -205182378#12 -205182378#11 -205182378#9 -205182378#7 -205182378#6 -205182378#5 -205182378#4"/>
    </vehicle>
    <vehicle arrivalPos="35.28" arrivalSpeed="0.00" depart="27769.00" departPos="46.42" id="randUni27642:1" type="random_006">
        <route edges="-20975952#1 20975943#1 20975943#2 -205182378#12 -205182378#11 -20975946#1 -20975939#1 201926265#1 201926265#2 201926265#3 201926265#4 201926265#5 201278209#0 201278209#2 -20405619"/>
    </vehicle>
    <vehicle arrivalPos="0.00" arrivalSpeed="0.00" depart="27771.98" departPos="0.00" id="carIn130655:1" type="default_006">
        <route edges="138300617#0 138300617#4 138300617#5 -39577540 -39577538 39577537 306793670#1"/>
    </vehicle>
    <vehicle arrivalPos="0.00" arrivalSpeed="0.00" depart="27774.00" departPos="0.00" id="carIn58441:1" type="default_006">
        <route edges="380271165#0 161680736 28593900 266885722 266885721#0 161680744#0 161680744#1 266887586 266887587 266887592 141058757 266887585#0 266887593#0 266887593#4 266887588#0 266887588#1 201926268#0 266887589#0 589179144 266887590#0 266887590#1 4268816#0 4268816#1 201956818#1 201956818#2 201956818#5 164051398 203971379#0 203971379#1 -54154922#1 -54154922#0 -42745461#1 -42745461#0 -42745460 25597196#0 25597196#2 25597196#3 25597196#4 25597196#5 25597196#6 -153692837#3 gneE134 -481432711 -41139095 -25596851#6 -25596851#5 -25596851#4 -25596851#3 -25596851#2 -25596851#1 -25596851#0 -201880159#0 25625974 171007004 202070435#0 202070435#1 202070435#2 202070435#5 202070435#5.37 202070435#5.70 202070435#9 202070435#12 202070435#13"/>
    </vehicle>
    <vehicle arrivalPos="17.49" arrivalSpeed="0.00" depart="27775.00" departPos="0.00" id="carIn129569:1" type="default_006">
        <route edges="380271165#0 161680736 28593900 266885722 266885721#0 161680744#0 161680744#1 266887586 266887587 266887592 141058757 266887585#0 266887593#0 20266190#0 20266190#2 72883541#1 20266189#0 20266189#1 -201926265#2 -201926265#1 -201926265#0 -23184252#1 -23184252#0 -37282688#5 -37282688#4 -37282688#3 -37282688#1 29458100#0 -201278214#1 -29458645 -29458645.13 -29458645.28 131118468#0 131118468#0.16 131118468#1 131118468#3 131118468#4 305390335 172515813 201278215 305390333 172515812#0 306086241 61940356 172515808 24495188 61940355 201969576#0 201969576#1 201969576#2 201969576#5 201969576#6 201969576#7 29497467 124812856#0 124812856#1 201956821#0 201956821#1.68 201963537#1 104010475#0 104012170 -32124745 -32124743 -32124744 -201089423#2 -201089423#1 -32999434#1 32999110#0 32999110#1 -315358253#3 -315358253#2 -315358253#1 -315358253#0 -315358248#1 -315358245 -202092675.36 -4942389#1 -4942389#0 -136436466 -315358251#1"/>
    </vehicle>
    <vehicle arrivalPos="0.00" arrivalSpeed="0.00" depart="27778.00" departPos="0.00" id="carIn98678:1" type="default_006">
        <route edges="380271165#0 161680736 28593900 266885722 266885721#0 161680744#0 161680744#1 266887586 266887587 266887592 141058757 266887585#0 266887593#0 20266190#0 -20266191 201926269#1 20588641#0 28124729#0 354967544#1 354967544#2 4268816#0 4268816#1 201956818#1 201956818#2 201956818#5 164051398 203971379#0 203971379#1 -54154922#1 -54154922#0 -42745461#1 -42745461#0 -42745460 -28132014#2 -28132014#0 24978651 115082348#0 115082348#1 115082348#3 115082348#4 257907858#0 27202149 202070427#0 202070427#1 202070427#2 33280103#0 33280103#1 33280103#2 33280103#3 33280103#4 33280103#4.68 97304242#0 97304242#2 97304242#4"/>
    </vehicle>
    <vehicle arrivalPos="200.00" arrivalSpeed="0.00" depart="27780.00" departPos="64.10" id="h18010c1:1" type="default_006">
        <route edges="215826160#0 -215826160#2 -215826160#1 -215826160#0 -37192508#0 -202070435#12 -202070435#11 -202070435#8 -202070435#6.32 -202070435#6.65 -202070435#4 -202070435#1 -202070435#0 -201789798#1 -201789798#0 -201789799#2 -201789799#1 -201789799#0 -30482638#13 -30482638#11 -30482638#10 -30482638#9 -30482638#8 -30482638#3 -30482638#2 -201926266 -90587320 -37480109 -90587323 -10425611#1 -10425611#0 -10425611#0.35 -164051429#1 -164051429#0 -161678034#2 -161678034#2.33 -161678034#2.50 -161678034#1 -161678034#0 28119593 -24983010#2 -24983010#0 26973015 -145069303#4 -145069303#3 -145069303#1 -145069303#0 -32009683#1 -24972185#9 -24972185#8 -24972185#8.373 -24972185#1 -32978638#3 -32978638#0 32021112#0 168702040#1 168702040#2 168702040#3 168702040#4 168702039#0 168702039#1 32999434#0 201089423#0 201089423#2 32124744 32124743 285716192#0 285716192#0.83 104010439#1 202070434#0 202070434#2 -139230366 -233675413#8 -233675413#6 -233675413#3 -233675413#2 -233675413#1 -233675413#0 -136728347#4"/>
    </vehicle>
    <vehicle arrivalPos="200.00" arrivalSpeed="0.00" depart="27780.00" departPos="0.00" id="carIn32616:1" type="default_006">
        <route edges="380271165#0 161680736 28593900 266885722 266885721#0 161680744#0 161680744#1 266887586 266887587 266887592 141058757 266887585#0 266887593#0 20266190#0 20266190#2 72883541#1 72883541#2 20975939#0 201926265#1 20588624#0 20588624#1 20588624#2 205182378#7 205182378#8 -28269810#6 -28269810#4 -28269810#3 -28269810#2 -28269810#1 -163586462 -4819338#4 -39443315#2 39443316#0 -32923863#1 151167768#0 151167768#1 172515814#0 172515814#1 305390333 172515812#0 306086241 61940356 172515808 24495188 61940355 201969576#0 201969576#1 201969576#2 201969576#5 201969576#6 201969576#7 29497467 124812856#0 124812856#1 201956821#0 201956821#1.68 201963537#1 -164051413 -653473569#5 25145013#0 -25145012#6 -25145012#5 -22716069#1 -22716069#0 -233675413#1 -233675413#0 -136728347#4"/>
    </vehicle>
    <vehicle arrivalPos="200.00" arrivalSpeed="0.00" depart="27780.00" departPos="0.00" id="carIn37390:1" type="default_006">
        <route edges="380271165#0 161680736 28593900 266885722 266885721#0 161680744#0 161680744#1 266887586 266887587 266887592 141058757 266887585#0 266887593#0 20266190#0 20266190#2 72883541#1 72883541#2 20975939#0 -201926265#0 -23184252#1 -23184252#0 -37282688#5 -37282688#4 -37282688#3 -37282688#1 29458100#0 -201278214#1 -29458645 -29458645.13 -29458645.28 131118468#0 131118468#0.16 131118468#1 131118468#3 131118468#4 305390335 172515813 201278215 305390333 172515812#0 306086241 61940356 172515808 24495188 61940355 201969576#0 201969576#1 201969576#2 201969576#5 201969576#6 201969576#7 29497467 124812856#0 124812856#1 201956821#0 201956821#1.68 201963537#1 -164051413 -653473569#5 25145013#0 -25145012#6 -25145012#5 -22716069#1 -22716069#0 -233675413#1 -233675413#0 -136728347#4"/>
    </vehicle>
    <vehicle arrivalPos="0.00" arrivalSpeed="0.00" depart="27783.00" departPos="0.00" id="carIn48969:1" type="default_006">
        <route edges="380271165#0 161680736 28593900 266885722 266885721#0 161680744#0 161680744#1 266887586 266887587 266887592 141058757 266887585#0 266887593#0 266887593#4 266887588#0 266887588#1 -201926269#3 -201926269#2 -201926269#1 -201926269#0 -389840423#0 -23184252#1 -23184252#0 -37282688#5 -37282688#4 -37282688#3 -37282688#1 29458100#0 -201278214#1 -29458645 -29458645.13 -29458645.28 131118468#0 131118468#0.16 131118468#1 131118468#3 131118468#4 305390335 172515813 201278215 305390324 -39649533 32923867#1 32923867#1.96 32923867#2 32923867#3 32923867#4 379723624#0 379723624#1 130996518#0 -233673423 145069386#0 32124563#0 342077199 -145069366#2 32350852#0 32350852#3 32350852#4 -161678033#0 -24983010#2 -24983010#0 26973015 -145069303#4 -145069303#3 -145069303#1 -145069303#0 11014139#0 24991573 24991571 64464405 266567306 64464408 64464384#1 32009827 266567303 266567294#0 25797090#1 201444272#0 201444272#1 201444272#3 29027727#0 29027727#4 29027727#6 29027727#7 29027727#9 152077572#0 152077572#2 152077572#2.79 54858974 542727960 30399316#0 30399316#0.52"/>
    </vehicle>
    <vehicle arrivalPos="145.37" arrivalSpeed="0.00" depart="27783.59" departPos="0.00" id="carIn129010:1" type="default_006">
        <route edges="221257626.144 39697943 266507545 266507540 27392720 27392724 23622443 195073412#0 195073412#1 195073412#2 195073413 327975020 327975024 327975024.20 327975024.51 327975019 28132017 32976751 32976751.35 146973222 39577538 39577540 638602238 -138300617#4 37681592#0 37681592#1 37681592#2 37681592#3 37681592#4 37681592#5 37681592#6 39698489 39698490 -25623125#2 25623126#0 25623126#2 -391029010 391208991 25626614#0 25626614#1 25626614#2 391029007 391029008#0 391029008#1 391029008#1.77 391029008#2 -33280103#5 -26176222#1 -26176222#0 -144657087#3 -26176225#5 -26176225#4 -26176225#3 -26176225#2 -26176225#1 -26176225#0 274823622#2 25895966#0 25895966#6 29238188#3 152077572#0 152077572#2 152077572#2.79 54858974 4942408 54858973#0 54858973#0.62 54858973#1 54858973#2 29119849#0 29119849#1 29119850 29119850.70 30399662#0 30399662#1 54169280#0 54169280#1 54169280#2 54169280#3 54169280#4 54169280#6 386687232#0 -315358251#1"/>
    </vehicle>
    <vehicle arrivalPos="0.00" arrivalSpeed="0.00" depart="27786.00" departPos="0.00" id="carIn5588:1" type="default_006">
        <route edges="380271165#0 161680736 28593900 266885722 266885721#0 161680744#0 161680744#1 266887586 266887587 266887592 141058757 266887585#0 266887593#0 266887593#4 266887588#0 266887588#1 -201926269#3 -201926269#2 -201926269#1 -201926269#0 -389840423#0 -20266198 201278210#9 -205182378#11 -28269810#6 -28269810#4 -28269810#3 -28269810#2 -28269810#1 -163586462 -4819338#4 -4819338#3 -4819338#1 -4819338#0 266607803#0 266607803#1 266607803#2 266607792#0"/>
    </vehicle>
    <vehicle arrivalPos="200.00" arrivalSpeed="0.00" depart="27786.00" departPos="0.00" id="carIn26796:1" type="default_006">
        <route edges="450072140 28593900 266885722 266885721#0 161680744#0 161680744#1 266887586 266887587 266887592 141058757 266887585#0 266887593#0 20266190#0 -20266191 -201926269#0 -389840423#0 -23184252#1 -23184252#0 -37282688#5 -37282688#4 -37282688#3 -37282688#1 29458100#0 -201278214#1 -29458645 -29458645.13 -29458645.28 131118468#0 131118468#0.16 131118468#1 131118468#3 131118468#4 305390335 172515813 201278215 305390333 172515812#0 306086241 61940356 172515808 24495188 61940355 201969576#0 201969576#1 201969576#2 201969576#5 201969576#6 201969576#7 29497467 124812856#0 124812856#1 201956821#0 201956821#1.68 201963537#1 -164051413 -653473569#5 25145013#0 -25145012#6 -25145012#5 -22716069#1 -22716069#0 -233675413#1 -233675413#0 -136728347#4"/>
    </vehicle>
    <vehicle arrivalPos="70.25" arrivalSpeed="0.00" depart="27788.35" departPos="0.00" id="carIn34236:1" type="default_006">
        <route edges="266885717 266885715 266885715.39 266885718#0 266885718#1 266885720 32930763 32930762 266507537 27454740 27454730 266507538 266507539 27392718 27392719 4058141 266507543 266507532 327975022 327975022.30 327975022.62 39704919 28091397 542650138 266507547 -266507550 -308849647 -201789794#3 -201789794#2 -202070429#9 -202070429#6 -202070429#5 -202070429#4 -202070429#3 -202070429#2 -202070429#1 -202070429#0 151167728 257907859#0 257907859#1 257907860#0 257907860#1.168 305390325#0 305390325#3 266567304#0 266567301#1 64464420 25955089 64464430 64464399#0 64464399#1 64464432#0 64464432#1 64464432#2 -24991571 -24991573 -11014139#1 145069303#0 145069303#1 145069303#2 145069303#4 -26973015 24983010#0 24983010#1 161678033#0 -32350852#4 -32350852#3 -32350852#1 -28418764#2 -28418764#1 -28418764#0.88 -28418764#0.109 -542617943 -389831364 -102818928#1 -102818928#0 -102818928#0.78 -61940355 -24495188 -29458641 -61940356 29458640#0 172517196 -38508400#1 -174609517#3 -33814393#3 -33814393#1 -33814393#0 -391208988 -40623117#2 -51244813#8 -51244813#7 -51244813#6 -51244813#5 -51244813#5.55 -51244813#3"/>
    </vehicle>
    <vehicle arrivalPos="0.00" arrivalSpeed="0.00" depart="27789.00" departPos="0.00" id="carIn86936:1" type="default_006">
        <route edges="380271165#0 161680736 28593900 266885722 266885721#0 161680744#0 161680744#1 266887586 266887587 266887592 141058757 266887585#0 266887593#0 20266190#0 -20266191 -201926269#0 -389840423#0 201926265#0 201926265#1 20588624#0 20588624#1 20588624#2 205182378#7 205182378#8 -28269810#6 -28269810#4 -28269810#3 -28269810#2 -28269810#1 -163586462 -4819338#4 -4819338#3 -4819338#1 -4819338#0 23184274#0 23184274#1 23184274#2 -391208988 -40623117#2 -51244813#8 -51244813#7 -51244813#6 -51244813#5 -51244813#5.55 -51244813#3"/>
    </vehicle>
    <vehicle arrivalPos="0.00" arrivalSpeed="0.00" depart="27789.35" departPos="0.00" id="carIn8559:1" type="default_006">
        <route edges="266885717 266885715 266885715.39 266885718#0 266885718#1 266885720 32930763 32930762 266507537 27454740 27454730 266507538 266507539 27392718 27392719 4058141 266507543 266507532 327975022 327975022.30 327975022.62 39704919 28091397 542650138 266507547 -266507550 -308849647 -201789794#3 -201789794#2 -202070429#9 -202070429#6 -202070429#5 -202070429#4 -202070429#3 -202070429#2 -202070429#1 -202070429#0 151167728 257907859#0 257907859#1 257907860#0 257907860#1.168 305390325#0 305390325#3 266567304#0 266567301#1 64464420 25955089 64464430 32009826#0 32009826#1 31342305 30404124 266567307#0 233673425#0 233673425#1 24977590#0 24977590#1 266565299 266565295#0 266565295#1 266565295#2 266565295#3 266565295#4 266565295#5 32999435 32124637#0 32124637#1 168702040#1 168702040#2 168702040#3 168702040#4 168702039#0 168702039#1 32999434#0 24693977#0 24693977#1 315392062#0 -160314346#1 -160314346#0 24634505 24634510#0 24634510#1 24634510#6"/>
    </vehicle>
    <vehicle arrivalPos="48.17" arrivalSpeed="0.00" depart="27790.00" departPos="0.00" id="carIn5268:1" type="default_006">
        <route edges="380271165#0 161680736 28593900 266885722 266885721#0 161680744#0 161680744#1 266887586 266887587 266887592 141058757 266887585#0 266887593#0 20266190#0 -20266191 -201926269#0 -389840423#0 201926265#0 201926265#1 20588624#0 20588624#1 20588624#2 205182378#7 205182378#8 -28269810#6 -28269810#4 -28269810#3 -28269810#2 -28269810#1 -163586462 -4819338#4 -39443315#2 39443316#0 -32923863#1 151167768#0 151167768#1 172515814#0 172515814#1 305390333 172515812#0 306086241 61940356 172515808 24495188 61940355 201969576#0 201969576#1 201969576#2 201969576#5 201969576#6 201969576#7 29497467 124812856#0 124812856#1 201956821#0 201956821#1.68 201963537#1 104010475#0 104012170 -32124745 -32124743 -32124744 -201089423#2 -201089423#1 -32999434#1 32999110#0 32999110#1 -315358253#3 -315358253#2 -315358253#1 -315358253#0 -315358248#1 -315358245 -202092675.36 -4942389#1 -4942389#0 -136436466 -315358251#1"/>
    </vehicle>
    <vehicle arrivalPos="230.00" arrivalSpeed="0.00" depart="27791.00" departPos="0.00" id="carIn32613:1" type="default_006">
        <route edges="266507542 39704923 266507553 39704918 542650138 266507547 -201789796#1 -201789796#0 -201880159#1 25596851#0 25596851#1 25596851#2 25596851#3 25596851#4 25596851#5 25596851#6 -201789797#1 -201789797#0 -30482638#13 -30482638#11 -30482638#10 -30482638#9 -30482638#8 -30482638#3 -30482638#2 -201926266 -90587320 -37480109 -90587323 -10425611#1 -10425611#0 -10425611#0.35 4324827#0 203971381#0 203971381#1 4324820 164051399 201956817 33279254#1 556434727 542630099 354967545#0.45 354967545#1 141058765#0 141058765#1 141058765#2 141058765#2.33 31624236#0 172700927#0 -48742425#2 -48742425#1 -48742425#0 -205182378#15 -205182378#14 -205182378#13 -205182378#12 -205182378#11 -205182378#9 -205182378#7 -205182378#6 -205182378#5 -205182378#4"/>
    </vehicle>
    <vehicle arrivalPos="200.00" arrivalSpeed="0.00" depart="27791.20" departPos="99.44" id="h5437c2:1" type="default_006">
        <route edges="173203413#0 201201953#4"/>
    </vehicle>
    <vehicle arrivalPos="0.00" arrivalSpeed="0.00" depart="27791.35" departPos="0.00" id="carIn106640:1" type="default_006">
        <route edges="266885717 266885715 266885715.39 266885718#0 266885718#1 266885720 32930763 32930762 266507537 27454740 27454730 266507538 266507539 27392718 27392719 4058141 266507543 266507532 327975022 327975022.30 327975022.62 39704919 28091397 542650138 266507547 -201789796#1 -201789796#0 -201880159#1 -201880159#0 25625974 202070431 -201789799#2 -201789799#1 -201789799#0 -30482638#13 -30482638#11 -30482638#10 -30482638#9 -30482638#8 -30482638#3 -30482638#2 -201926266 -90587320 -37480109 -90587323 -10425611#1 -10425611#0 -10425611#0.35 -164051429#1 -164051429#0 -161678034#2 -161678034#2.33 -161678034#2.50 -161678034#1 -161678034#0 28119593 -24983010#2 -24983010#0 26973015 -145069303#4 -145069303#3 -145069303#1 -145069303#0 -32009683#1 -24972185#9 -24972185#8 -24972185#8.373 -24972185#1 -389840420#4 -389840420#2 -32061928#4 -32061928#3 -32061928#1 18909063#0 18909063#1 -36689751#2 10425609#0 10425609#1 201963537#1 -164051413 -653473569#5 -653473569#4 -653473569#2 -653473569#1 -653473569#0 -653473568#1 -653473568#0 -18813598#8"/>
    </vehicle>
    <vehicle arrivalPos="40.32" arrivalSpeed="0.00" depart="27793.00" departPos="23.46" id="h1149c1:1" type="default_006">
        <route edges="358042226 40801168 -32226141#0 -32234776#1 -103512667#2 -103512667#1 -103512667#0 103512671 -33102477 18909061#0 389831363#0 32061928#2 32061928#4 32061928#5 389840420#3 24972185#0 24972185#2 24972185#2.111 24972185#9 29048562#0 11014139#0 24991573 24991571 64464405 266567306 64464408 64464384#1 32009827 266567303 266567294#0 25797090#1 201444272#0 201444272#1 201444272#3 29027727#0 29027727#4 29027727#6 29027727#7 29027727#9 -29238188#3 -25895966#7 -25895966#5 -274823622#2 -274823622#1 -274823622#0 -274823622#0.68 -31342351#1 23009600#0 23009600#2 29205273#0"/>
    </vehicle>
    <vehicle arrivalPos="25.00" arrivalSpeed="0.00" depart="27793.00" departPos="0.00" id="carIn60333:1" type="default_006">
        <route edges="380271165#0 161680736 28593900 266885722 266885721#0 161680744#0 161680744#1 266887586 266887587 266887592 141058757 266887585#0 266887593#0 266887593#4 266887588#0 266887588#1 -201926269#3 -201926269#2 -201926269#1 -201926269#0 -72883541#3 -72883541#2 -72883541#1 -20266190#2 -20266190#1 -266887593#3 -266887591 -141058757 111525330#0 350320331#0 266885723#0 161680739 27453586#0 gneE119"/>
    </vehicle>
    <vehicle arrivalPos="45.23" arrivalSpeed="0.00" depart="27794.00" departPos="4.85" id="h9356c2:3" type="default_006">
        <route edges="-20975939#0 -72883541#2 20266189#0 20266189#1 -201926265#2 -201926265#1 20975939#1 20975946#0 -28269810#6 -28269810#4 -28269810#3 -28269810#2 -28269810#1 -163586462 -4819338#4 -39443315#2 39443316#0 -32923863#1 151167768#0 151167768#1 172515814#0 172515814#1 305390324 -39649533 32923867#1 32923867#1.96 32923867#2 32923867#3 32923867#4 379723624#0 379723624#1 130996518#0 -233673423 145069386#0 32124563#0 342077199 -145069366#2 32350852#0 32350852#3 32350852#4 51857519#0 161678034#0 161678034#1 161678034#2 161678034#2.30 161678034#2.46 24970784#0 164051410#0 164051410#1 32199969#0 32199969#2 32199969#5 32199989#0 32199989#1 323248156#0 31342064#1 31342064#1.83 31894763#0 137463475#0"/>
    </vehicle>
    <vehicle arrivalPos="106.22" arrivalSpeed="0.00" depart="27795.00" departPos="0.00" id="h5930c2:3" type="default_006">