<?xml version="1.0" encoding="UTF-8"?>
<!-- generated on 2022-03-28 18:26:19.825232 by cutRoutes.py UNKNOWN
  options: ingolstadt_reduced.net.xml /home/momo/dateien/Studies/thesis/workspace/InTAS/scenario/routes/InTAS_003.rou.xml <doubleminus>routes-output routes_test/InTAS_003.rou.xml <doubleminus>orig-net ../ingolstadt.net.xml
-->
<routes xmlns:xsi="http://www.w3.org/2001/XMLSchema-instance" xsi:noNamespaceSchemaLocation="http://sumo.dlr.de/xsd/routes_file.xsd">
    <vType color="red" id="default_003" vClass="passenger"/>
    <vType color="blue" id="random_003" vClass="passenger"/>
    <vehicle arrivalPos="46.40" arrivalSpeed="0.00" depart="21489.00" departPos="125.45" id="h19142c2:3" type="default_003">
        <route edges="-130996521#1 130996518#0 -233673423 -32201044#2 -32201044#1 145069336#0 145069336#1 145069336#2 145069280#0 -145069391 145069286#0 32229741 32229742#1 32229742#3 32229742#4 32229742#5 145069384 -37649447#1 -32202011#1 51856496#8 204388144#0 204388144#1 -33102476 -36689751#2 10425609#0 10425609#1 201963537#1 -164051413 -653473569#5 -653473569#4 -653473569#2 -22716069#2 -22716069#1 -22716069#0 -233675413#1 -233675413#0 -136728347#4"/>
    </vehicle>
    <vehicle arrivalPos="230.00" arrivalSpeed="0.00" depart="21492.00" departPos="49.96" id="h14295c1:1" type="default_003">
        <route edges="-20588629#1 -20588629#0"/>
    </vehicle>
    <vehicle arrivalPos="200.00" arrivalSpeed="0.00" depart="21494.00" departPos="97.44" id="h8227c1:1" type="default_003">
        <route edges="-201238724 24634510#0 24634510#1 24634510#6"/>
    </vehicle>
    <vehicle arrivalPos="0.00" arrivalSpeed="0.00" depart="21494.00" departPos="47.49" id="h9410c2:1" type="default_003">
        <route edges="153692841#3 -153692837#4 -153692837#3 -153692837#2 -25596855#0 25596974#1 -25640093#2 25597372 202070429#6 202070429#7 201789794#0 201789794#3 308849647 266507550 30320943 23622426 -195073412#2 -195073412#1 -195073412#0 195073415 266507536 27550700 27454737 266507535 32930761 146973160 266885714 266885716 266885719 266885719.121 266885713"/>
    </vehicle>
    <vehicle arrivalPos="0.00" arrivalSpeed="0.00" depart="21495.00" departPos="0.00" id="carIn20578:1" type="default_003">
        <route edges="380271165#0 161680736 28593900 266885722 266885721#0 161680744#0 161680744#1 266887586 266887587 266887592 141058757 266887585#0 266887593#0 266887593#4 266887588#0 266887588#1 201926268#0 266887589#0 589179144 266887590#0 266887590#1 141058765#0 141058765#1 141058765#2 141058765#2.33 103718178 -201278216#1 -201278214#1 -29458645 -29458645.13 -29458645.28 131118468#0 131118468#0.16 131118468#1 131118468#3 131118468#4 305390335 172515813 201278215 305390333 172515812#0 306086241 61940356 172515808 24495188 61940355 102818925 102818928#1 10425610#0 156923526#0 156923526#3 390282481 51856496#0 51856496#1 51856496#2 51856496#3 51856496#4 51856496#5 51856496#6 51856496#8 204388144#0 204388144#1 18909061#0 389831363#0 32061928#2 32061928#4 24599188#0 24599188#0.75 24599188#0.94 172488482#0 -32124744 -201089423#2 -201089423#1 24693977#0 24693977#1 315392062#0 -160314346#1 -160314346#0 24634505 24634510#0 24634510#1 24634510#6"/>
    </vehicle>
    <vehicle arrivalPos="71.86" arrivalSpeed="0.00" depart="21497.00" departPos="24.86" id="randUni14971:1" type="random_003">
        <route edges="33280102#2 33280102#3 33280102#5 31021475 202070430 202070429#0 202070429#1 202070429#2 202070429#3 202070429#4 202070429#5 -28132813 -175761127#11 -175761127#9 -175761127#7 -175761127#1 -36291830 30320943 378466167 266507548 32976755 327975020 327975024 327975024.20 327975024.51 327975019 146973189 195073416 195073418#0 195073418#1"/>
    </vehicle>
    <vehicle arrivalPos="110.89" arrivalSpeed="0.00" depart="21499.00" departPos="0.00" id="carIn113865:1" type="default_003">
        <route edges="380271165#0 161680736 28593900 266885722 266885721#0 161680744#0 161680744#1 266887586 266887587 266887592 141058757 266887585#0 266887593#0 266887593#4 266887588#0 266887588#1 201926268#0 266887589#0 589179144 266887590#0 266887590#1 4268816#0 4268816#1 201956818#1 201956818#2 201956818#5 164051398 203971379#0 203971379#1 -54154922#1 -54154922#0 -42745461#1 -42745461#0 -42745460 -28132014#2 -28132014#0 24978651 115082348#0 115082348#1 115082348#3 115082348#4 257907858#0 27202149 202070427#0 202070427#1 202070427#2 33280103#0 33280103#1 33280103#2 33280103#3 33280103#4 33280103#4.68 4942575#0 4942575#1 -27761238#7 -27781947#3"/>
    </vehicle>
    <vehicle arrivalPos="25.00" arrivalSpeed="0.00" depart="21500.00" departPos="0.00" id="carIn102412:1" type="default_003">
        <route edges="380271165#0 161680736 28593900 266885722 266885721#0 161680744#0 161680744#1 266887586 266887587 266887592 141058757 266887585#0 266887593#0 20266190#0 20266190#2 72883541#1 20266189#0 44959795 -44959795 -20266189#0 -72883541#1 -20266190#2 -20266190#1 -266887593#3 -266887591 -141058757 111525330#0 350320331#0 266885723#0 161680739 27453586#0 gneE119"/>
    </vehicle>
    <vehicle arrivalPos="25.00" arrivalSpeed="0.00" depart="21500.09" departPos="0.00" id="carIn111753:1" type="default_003">
        <route edges="306793669 32976752 28091398 327975022 327975022.30 327975022.62 39704920 151167740 266507555 266507558 39704924 39704922 266507540 27392720 27392724 266507546 266507536 27550700 27454737 266507535 32930761 146973160 266885714 146973156#0 450076615#0 161680739 27453586#0 gneE119"/>
    </vehicle>
    <vehicle arrivalPos="0.00" arrivalSpeed="0.00" depart="21501.00" departPos="0.00" id="carIn7007:1" type="default_003">
        <route edges="266507542 39704923 266507553 48395120#0 48395120#1 32976755 327975020 327975024 327975024.20 327975024.51 327975019 146973189 195073416 195073418#0 195073418#1 266507539 27392718 27392719 4058141 266507543 266507532 327975022 327975022.30 327975022.62 39704920 151167740 266507555 266507558 39704924 39704922"/>
    </vehicle>
    <vehicle arrivalPos="53.05" arrivalSpeed="0.00" depart="21501.00" departPos="22.41" id="randUni21827:1" type="random_003">
        <route edges="31342350#2 31342350#2.130 -33280103#5 -33280103#3 -33280103#2 -33280103#1 -33280103#0 33280102#0 33280102#1 33280102#2 33280102#3 33280102#5 -257907858#1 -115082348#5 -115082348#3 -115082348#2 -115082348#0 -24978651 28132014#0 28132014#1 42745460 42745461#0 42745461#1 54154922#0 54154922#1 26071515#0 26071515#1 4324820 164051399 201956817 33279254#1 556434727 542630099 354967545#0.45 354967545#1 141058765#0 141058765#1 141058765#2 141058765#2.33 31624236#0 172700927#0 -48742425#2 -48742425#1 -48742425#0 -205182378#15 -205182378#14 -205182378#13 -205182378#12 -201278210#9 -201278210#8 -201278210#6 -201278210#5 -201278210#4"/>
    </vehicle>
    <vehicle arrivalPos="0.00" arrivalSpeed="0.00" depart="21502.09" departPos="0.00" id="carIn94821:1" type="default_003">
        <route edges="306793669 32976752 28091398 327975022 327975022.30 327975022.62 39704920 151167740 266507555 266507558 39704924 39704922 266507540 27392720 27392724 266507546 266507536 27550700 27454737 266507535 32930761 146973160 266885714 266885716 266885719 266885719.121 266885713"/>
    </vehicle>
    <vehicle arrivalPos="0.00" arrivalSpeed="0.00" depart="21503.00" departPos="91.94" id="h12008c1:1" type="default_003">
        <route edges="31342349#0 31342349#3 -54858974 -152077572#2 -152077572#1 -29238188#3 -25895966#7 -25895966#5 -274823622#2 26176225#0 26176225#1 26176225#2 26176225#3 26176225#4 26176225#5 144657087#3 26176222#0 26176222#1 33280103#4 33280103#4.68 391208990 -391208989 -391029007 -25626614#2 -25626614#1 -25626614#0 -391208991 -542650762 -542650762.100 -4061708 41425835 41425835.214 41425835.236 151167747 151167747.23 549032836 39704924 39704922 266507540 27392720 27392724 266507546 266507536 27550700 27454737 266507535 32930761 146973160 266885714 266885716 266885719 266885719.121 266885713"/>
    </vehicle>
    <vehicle arrivalPos="0.00" arrivalSpeed="0.00" depart="21503.00" departPos="0.00" id="carIn107077:1" type="default_003">
        <route edges="380271165#0 161680736 28593900 266885722 266885721#0 161680744#0 161680744#1 266887586 266887587 266887592 141058757 266887585#0 266887593#0 266887593#4 266887588#0 266887588#1 201926268#0 266887589#0 589179144 266887590#0 266887590#1 141058765#0 141058765#1 141058765#2 141058765#2.33 103718178 -201278216#1 -201278214#1 -29458645 -29458645.13 -29458645.28 131118468#0 131118468#0.16 131118468#1 131118468#3 131118468#4 305390335 172515813 201278215 305390333 172515812#0 306086241 61940356 172515808 24495188 61940355 201969576#0 201969576#1 201969576#2 201969576#5 201969576#6 201969576#7 29497467 124812856#0 124812856#1 201956810 25149001#0 -25188977 -25188976#1 -25188976#0 25149001#3 25149001#4 25149001#5 -653473569#0 -653473568#1 -653473568#0 -18813598#8"/>
    </vehicle>
    <vehicle arrivalPos="25.80" arrivalSpeed="0.00" depart="21504.00" departPos="5.87" id="randUni1485:1" type="random_003">
        <route edges="-201880159#0 25625974 202070431 -201789799#2 -201789799#1 -201789799#0 -30482638#13 -30482638#11 -30482638#10 -30482638#9 -30482638#8 -30482638#3 -30482638#2 -201926266 -90587320 -37480109 -90587323 -10425611#1 -10425611#0 -10425611#0.35 -164051429#1 -164051429#0 -161678034#2 -161678034#2.33 -161678034#2.50 -161678034#1 -161678034#0 28119593 -24983010#2 -24983010#0 -24692391#3 -24692391#1 144659495 144659489 24762523#0 24762523#1 31773007 77670297#0 52572753#0 52572753#2 29119898 145069331#0 145069287#0 145069287#0.136 -103512667#0 145069291#0 145069291#2 145069345#0 145069345#1"/>
    </vehicle>
    <vehicle arrivalPos="25.00" arrivalSpeed="0.00" depart="21507.00" departPos="0.00" id="carIn102680:1" type="default_003">
        <route edges="266507542 -28132852 26180725#1 -36291830 30320943 23622426 -195073412#2 -195073412#1 -195073412#0 195073415 266507536 27550700 27454737 266507535 32930761 146973160 266885714 146973156#0 450076615#0 161680739 27453586#0 gneE119"/>
    </vehicle>
    <vehicle arrivalPos="200.00" arrivalSpeed="0.00" depart="21508.00" departPos="73.36" id="h9020c1:1" type="default_003">
        <route edges="-25597196#6 -25597196#5 25595895#0 25595895#1 -30482638#2 -201926266 -90587320 -37480109 -90587323 -10425611#1 -10425611#0 -10425611#0.35 -164051429#1 -164051429#0 -161678034#2 -161678034#2.33 -161678034#2.50 -161678034#1 -161678034#0 28119593 -24983010#2 -24983010#0 26973015 -145069303#4 -145069303#3 -145069303#1 -145069303#0 -32009683#1 -24972185#9 -24972185#8 -24972185#8.373 -24972185#1 -32978638#3 -32978638#0 32021112#0 168702040#1 168702040#2 168702040#3 168702040#4 168702039#0 168702039#1 32999434#0 24693977#0 24693977#1 315392062#0 -160314346#1 -160314346#0 24634505 24634510#0 24634510#1 24634510#6"/>
    </vehicle>
    <vehicle arrivalPos="38.03" arrivalSpeed="0.00" depart="21509.59" departPos="0.00" id="carIn93477:1" type="default_003">
        <route edges="221257626.144 39697943 146973153 39530041 39530040 266507557#1 4058127#1 25623125#0 25623126#0 25623126#2 -391029010 391208991 25626614#0 25626614#1 25626614#2 391029007 391029008#0 391029008#1 391029008#1.77 391029008#2 4942575#0 4942575#1 4942575#2 31342349#0 31342349#3 4942408 54858973#0 54858973#0.62 54858973#1 54858973#2 29119849#0 29119849#1 29119850 29119850.70 30399662#0 30399662#1 54169280#0 54169280#1 54169280#2 54169280#3 54169280#4 54169280#6 386687232#0 -315358251#1"/>
    </vehicle>
    <vehicle arrivalPos="40.92" arrivalSpeed="0.00" depart="21510.00" departPos="161.15" id="h12823c2:1" type="default_003">
        <route edges="39697943 146973153 39530041 266507542 39704923 266507553 39704918 542650138 266507547 -201789796#1 -201789796#0 -201880159#1 -201880159#0 25625974 202070431 -201789799#2 -201789799#1 -201789799#0 -30482638#13 -30482638#11 -30482638#10 -30482638#9 -30482638#8 -30482638#3 -30482638#2 -201926266 -90587320 -37480109 -90587323 -10425611#1 -10425611#0 -10425611#0.35 -164051429#1 -164051429#0 -161678034#2 -161678034#2.33 -161678034#2.50 -161678034#1 -161678034#0 28119593 -24983010#2 -24983010#0 26973015 -145069303#4 -145069303#3 -145069303#1 -145069303#0 -32009683#1 -24972185#9 -24972185#8 -24972185#8.373 -24972185#1 29458097#0 51856495#0 25850440#0"/>
    </vehicle>
    <vehicle arrivalPos="230.00" arrivalSpeed="0.00" depart="21510.00" departPos="0.00" id="carIn37861:1" type="default_003">
        <route edges="380271165#0 161680736 28593900 266885722 266885721#0 161680744#0 161680744#1 266887586 266887587 266887592 141058757 266887585#0 266887593#0 20266190#0 20266190#2 -72883541#0 30054829#0 201926265#5 201278209#0 201278209#2 -20405619"/>
    </vehicle>
    <vehicle arrivalPos="2.02" arrivalSpeed="0.00" depart="21511.00" departPos="6.96" id="randUni5568:1" type="random_003">
        <route edges="-201933878#5 -201933878#3 -201933878#2 -201933878#1 -201933877#3 -24499966#2 -24499966#0 -23184274#1 -23184274#0 4819338#0 4819338#1 4819338#2 4819338#4 163586462 28269810#0"/>
    </vehicle>
    <vehicle arrivalPos="30.03" arrivalSpeed="0.00" depart="21511.00" departPos="49.77" id="randUni15331:1" type="random_003">
        <route edges="54169280#1 54169280#2 54169280#3 54169280#4 4942381 -24978943#1 24608844 32124634 32124637#1 51857518#1 32978638#0 32978638#1 24972185#0 24972185#2 24972185#2.111 24972185#9 29048562#0 145069303#0 145069303#1 145069303#2 145069303#4 -26973015 24983010#0 24983010#1 161678033#0 51857519#0 161678034#0 161678034#1 161678034#2 161678034#2.30 161678034#2.46 24970784#0 24977473#0 54154922#0 54154922#1 26071515#0 26071515#1 4324820 164051399 201956817 33279254#1 556434727 542630099 354967545#0.45"/>
    </vehicle>
    <vehicle arrivalPos="0.00" arrivalSpeed="0.00" depart="21512.00" departPos="16.35" id="h3831c2:1" type="default_003">
        <route edges="24634414#4 -37386279 -24634413#2 -24634413#1 -160314345#1 -160314345#0 -160314346#1 -160314346#0 24634505 24634510#0 24634510#1 24634510#6"/>
    </vehicle>
    <vehicle arrivalPos="200.00" arrivalSpeed="0.00" depart="21512.00" departPos="103.87" id="h8570c1:1" type="default_003">
        <route edges="201238724 -201238718#0 -160314346#1 -160314346#0 24634505 24634510#0 24634510#1 24634510#6"/>
    </vehicle>
    <vehicle arrivalPos="0.00" arrivalSpeed="0.00" depart="21512.00" departPos="41.17" id="h12661c1:1" type="default_003">
        <route edges="266507540 27392720 27392724 266507546 266507536 27550700 27454737 266507535 32930761 146973160 266885714 146973156#0 39649528 161680744#1 266887586 266887587 266887592 141058757 266887585#0 266887593#0 266887593#4 266887588#0 266887588#1 201926268#0 266887589#0 589179144 266887590#0 266887590#1 141058765#0 141058765#1 141058765#2 141058765#2.33 103718178 -201278216#1 -201278214#1 -29458645 -29458645.13 -29458645.28 131118468#0 131118468#0.16 131118468#1 131118468#3 131118468#4 305390335 172515813 201278215 305390333 172515812#0 306086241 61940356 172515808 24495188 61940355 201969576#0 201969576#1 201969576#2 201969576#5 201969576#6 201969576#7 29497467 124812856#0 124812856#1 201956821#0 201956821#1.68 201963537#1 -164051413 -653473569#5 25145013#0 -25145012#6 -25145012#5 -22716069#1 -22716069#0 -233675413#1 -233675413#0 -136728347#4"/>
    </vehicle>
    <vehicle arrivalPos="132.83" arrivalSpeed="0.00" depart="21512.00" departPos="0.00" id="carIn46318:1" type="default_003">
        <route edges="266507542 -28132852 26180725#1 175761127#0 175761127#2 25895945#2 -202070429#6 -202070429#5 -202070429#4 -202070429#3 -202070429#2 -202070429#1 -202070429#0 151167728 26451152#0 202070427#0 25796375#0 25796375#1 25796375#2 25796388 32202763 -25638529 25895961 -274823622#3 25895966#0 25895966#6 29238188#3 152077572#0 152077572#2 152077572#2.79 54858974 542727960 30399316#0 30399316#0.52"/>
    </vehicle>
    <vehicle arrivalPos="20.41" arrivalSpeed="0.00" depart="21513.00" departPos="43.07" id="h17278c1:3" type="default_003">
        <route edges="-274823622#1 61326427#1 32202510#0 25895966#6 29238188#3 152077572#0 152077572#2 152077572#2.79 54858974 542727960 30399316#0 30399316#0.52"/>
    </vehicle>
    <vehicle arrivalPos="230.00" arrivalSpeed="0.00" depart="21513.00" departPos="0.00" id="carIn55292:1" type="default_003">
        <route edges="380271165#0 161680736 28593900 266885722 266885721#0 161680744#0 161680744#1 266887586 266887587 266887592 141058757 266887585#0 266887593#0 20266190#0 20266190#2 -72883541#0 30054829#0 201926265#5 201278209#0 201278209#2 -20405619"/>
    </vehicle>
    <vehicle arrivalPos="0.00" arrivalSpeed="0.00" depart="21516.00" departPos="0.00" id="carIn100432:1" type="default_003">
        <route edges="380271165#0 161680736 28593900 266885722 266885721#0 161680744#0 161680744#1 266887586 266887587 266887592 141058757 266887585#0 266887593#0 266887593#4 266887588#0 266887588#1 201926268#0 266887589#0 589179144 266887590#0 266887590#1 4268816#0 4268816#1 201956818#1 201956818#2 201956818#5 164051398 25188982#0 25192758 203971378#0 37480109 90587320 90587320.64 201926266 30482638#0 30482638#3 30482638#4 -153692837#5 -153692837#4 -153692837#3 -153692837#2 -25596855#0 25596974#1 -25640093#2 25597372 -28132813 -175761127#11 -175761127#9 -175761127#7 -175761127#1 -26180725#2 28132852 549032836 39704924 39704922"/>
    </vehicle>
    <vehicle arrivalPos="6.93" arrivalSpeed="0.00" depart="21516.00" departPos="21.90" id="randUni11617:1" type="random_003">
        <route edges="-28269810#2 -28269810#1 -163586462 -4819338#4 -4819338#3 -4819338#1 -4819338#0 266607803#0 266607803#1 266607803#2 266607792#0"/>
    </vehicle>
    <vehicle arrivalPos="0.00" arrivalSpeed="0.00" depart="21517.00" departPos="0.00" id="carIn106672:1" type="default_003">
        <route edges="380271165#0 161680736 28593900 266885722 266885721#0 161680744#0 161680744#1 266887586 266887587 266887592 141058757 266887585#0 266887593#0 266887593#4 266887588#0 266887588#1 201926268#0 266887589#0 589179144 266887590#0 266887590#1 4268816#0 4268816#1 201956818#1 201956818#2 201956818#5 164051398 25188982#0 25192758 203971378#0 37480109 90587320 90587320.64 201926266 30482638#0 30482638#3 25640150 -92026769#12 -92026769#11 -92026769#5 -92026769#3 -92026769#2 -92026769#1 -92026769#0 -25895947#1 -25895947#0 -202070435#1 10941820 201880159#0 201880159#1 201880159#2 201789796#0.31 201789796#1 30320943 378466167 266507548 32976755 327975020 327975024 327975024.20 327975024.51 327975019 28132017 32976751 32976751.35 306793670#0 306793670#1"/>
    </vehicle>
    <vehicle arrivalPos="200.00" arrivalSpeed="0.00" depart="21517.00" departPos="0.00" id="carIn124953:1" type="default_003">
        <route edges="380271165#0 161680736 28593900 266885722 266885721#0 161680744#0 161680744#1 266887586 266887587 266887592 141058757 266887585#0 266887593#0 266887593#4 266887588#0 266887588#1 201926268#0 266887589#0 589179144 266887590#0 266887590#1 141058765#0 141058765#1 141058765#2 141058765#2.33 103718178 -201278216#1 -201278214#1 -29458645 -29458645.13 -29458645.28 131118468#0 131118468#0.16 131118468#1 131118468#3 131118468#4 305390335 172515813 201278215 305390333 172515812#0 306086241 61940356 172515808 24495188 61940355 201969576#0 201969576#1 201969576#2 201969576#5 201969576#6 201969576#7 29497467 124812856#0 124812856#1 201956821#0 201956821#1.68 201963537#1 -164051413 -653473569#5 25145013#0 -25145012#6 -25145012#5 -22716069#1 -22716069#0 -233675413#1 -233675413#0 -136728347#4"/>
    </vehicle>
    <vehicle arrivalPos="7.14" arrivalSpeed="0.00" depart="21519.00" departPos="4.30" id="randUni13356:1" type="random_003">
        <route edges="40623117#0 26339462#0 201933880#0 201933880#3"/>
    </vehicle>
    <vehicle arrivalPos="200.00" arrivalSpeed="0.00" depart="21520.00" departPos="0.00" id="carIn126251:1" type="default_003">
        <route edges="380271165#0 161680736 28593900 266885722 266885721#0 161680744#0 161680744#1 266887586 266887587 266887592 141058757 266887585#0 266887593#0 266887593#4 266887588#0 266887588#1 201926268#0 266887589#0 589179144 266887590#0 266887590#1 141058765#0 141058765#1 141058765#2 141058765#2.33 103718178 -201278216#1 -201278214#1 -29458645 -29458645.13 -29458645.28 131118468#0 131118468#0.16 131118468#1 131118468#3 131118468#4 305390335 172515813 201278215 305390333 172515812#0 306086241 61940356 172515808 24495188 61940355 102818925 102818928#1 10425610#0 156923526#0 156923526#3 390282481 51856496#0 51856496#1 51856496#2 51856496#3 51856496#4 51856496#5 51856496#6 51856496#8 204388144#0 204388144#1 -33102476 -36689751#2 10425609#0 10425609#1 201963537#1 -164051413 -653473569#5 25145013#0 -25145012#6 -25145012#5 -22716069#1 -22716069#0 -233675413#1 -233675413#0 -136728347#4"/>
    </vehicle>
    <vehicle arrivalPos="0.00" arrivalSpeed="0.00" depart="21520.09" departPos="0.00" id="carIn95414:1" type="default_003">
        <route edges="306793669 32976752 28091398 327975022 327975022.30 327975022.62 39704920 151167740 266507555 266507554 266507557#0 266507557#1 172368742 172368742.57 172368742.75 172368742.185 542650763#0 542650763#1.78 542650763#2 391029008#0 391029008#1 391029008#1.77 391029008#2 4942575#0 4942575#1 4942575#2 23009600#0 23009600#2 153220338#0 153220338#2"/>
    </vehicle>
    <vehicle arrivalPos="0.00" arrivalSpeed="0.00" depart="21521.00" departPos="83.28" id="h1509c2:1" type="default_003">
        <route edges="-25145013#1 25145012#7 104010354 124812857#0 201956811#0 36689751#0 33102476 173148224#1 -137685135 -51856496#7 -51856496#5 -51856496#4 -51856496#3 -51856496#2 -51856496#1 -51856496#0 -390282481 -156923526#3 -156923526#2 -10425610#2 389831364 542617943 28418764#0 28418764#0.126 28418764#0.141 28418764#2 32350852#0 32350852#3 32350852#4 51857519#0 161678034#0 161678034#1 161678034#2 161678034#2.30 161678034#2.46 164051429#0 164051429#1 10425611#0 10425611#0.83 10425611#1 203971380 37480109 90587320 90587320.64 201926266 30482638#0 30482638#3 30482638#4 -153692837#5 -153692837#4 -153692837#3 -153692837#2 -25596855#0 25596974#1 -25640093#2 25597372 202070429#6 202070429#7 201789794#0 201789794#3 308849647 266507550 30320943 23622426 -195073412#2 -195073412#1 -195073412#0 195073415 266507536 27550700 27454737 266507535 32930761 146973160 266885714 266885716 266885719 266885719.121 266885713"/>
    </vehicle>
    <vehicle arrivalPos="0.00" arrivalSpeed="0.00" depart="21521.00" departPos="0.00" id="carIn10542:1" type="default_003">
        <route edges="380271165#0 161680736 28593900 266885722 266885721#0 161680744#0 161680744#1 266887586 266887587 266887592 141058757 266887585#0 266887593#0 266887593#4 266887588#0 266887588#1 201926268#0 266887589#0 589179144 266887590#0 266887590#1 141058765#0 141058765#1 141058765#2 141058765#2.33 103718178 -201278216#1 -201278214#1 -29458645 -29458645.13 -29458645.28 131118468#0 131118468#0.16 131118468#1 131118468#3 131118468#4 305390335 172515813 201278215 305390333 172515812#0 306086241 61940356 172515808 24495188 61940355 102818925 102818928#1 10425610#0 156923526#0 156923526#3 390282481 51856496#0 51856496#1 51856496#2 51856496#3 51856496#4 51856496#5 51856496#6 51856496#8 204388144#0 204388144#1 18909061#0 389831363#0 32061928#2 32061928#4 24599188#0 24599188#0.75 24599188#0.94 172488482#0 -32124744 -201089423#2 -201089423#1 24693977#0 24693977#1 315392062#0 -160314346#1 -160314346#0 24634505 24634510#0 24634510#1 24634510#6"/>
    </vehicle>
    <vehicle arrivalPos="27.96" arrivalSpeed="0.00" depart="21521.00" departPos="0.00" id="carIn22679:1" type="default_003">
        <route edges="380271165#0 161680736 28593900 266885722 266885721#0 161680744#0 161680744#1 266887586 266887587 266887592 141058757 266887585#0 266887593#0 20266190#0 20266190#2 72883541#1 20266189#0 20266189#1 -201926265#2 -201926265#1 -201926265#0 -23184252#1 -23184252#0 -37282688#5 -37282688#4 -37282688#3 -37282688#1 29458100#0 -201278214#1 -29458645 -29458645.13 -29458645.28 131118468#0 131118468#0.16 131118468#1 131118468#3 131118468#4 305390335 172515813 201278215 305390333 172515812#0 306086241 61940356 172515808 24495188 61940355 201969576#0 201969576#1 201969576#2 201969576#5 201969576#6 201969576#7 29497467 124812856#0 124812856#1 201956821#0 201956821#1.68 201963537#1 104010475#0 104012170 -32124745 -32124743 -32124744 -201089423#2 -201089423#1 -32999434#1 32999110#0 32999110#1 -315358253#3 -315358253#2 -315358253#1 -315358253#0 -315358248#1 -315358245 -202092675.36 -4942389#1 -4942389#0 -136436466 -315358251#1"/>
    </vehicle>
    <vehicle arrivalPos="0.00" arrivalSpeed="0.00" depart="21522.00" departPos="0.00" id="carIn94152:1" type="default_003">
        <route edges="380271165#0 161680736 28593900 266885722 266885721#0 161680744#0 161680744#1 266887586 266887587 266887592 141058757 266887585#0 266887593#0 266887593#4 266887588#0 266887588#1 201926268#0 266887589#0 589179144 266887590#0 266887590#1 4268816#0 4268816#1 201956818#1 201956818#2 201956818#5 164051398 25188982#0 25192758 203971378#0 37480109 90587320 90587320.64 201926266 30482638#0 30482638#3 25640150 -92026769#12 -92026769#11 -92026769#5 -92026769#3 -92026769#2 -92026769#1 -92026769#0 -25895947#1 -25895947#0 -202070435#1 10941820 201880159#0 201880159#1 201880159#2 201789796#0.31 201789796#1 30320943 378466167 266507548 32976755 327975020 327975024 327975024.20 327975024.51 327975019 28132017 32976751 32976751.35 306793670#0 306793670#1"/>
    </vehicle>
    <vehicle arrivalPos="0.00" arrivalSpeed="0.00" depart="21523.09" departPos="0.00" id="carIn47742:1" type="default_003">
        <route edges="306793669 146973170 -266507543 266507533 266507544 266507534"/>
    </vehicle>
    <vehicle arrivalPos="56.43" arrivalSpeed="0.00" depart="21524.35" departPos="0.00" id="carIn68754:1" type="default_003">
        <route edges="266885717 146973183#0 450072140 28593900 266885722 266885721#0 161680744#0 161680744#1 266887586 266887587 266887592 141058757 266887585#0 266887593#0 266887593#4 266887588#0 266887588#1 201926268#0 266887589#0 589179144 266887590#0 266887590#1 4268816#0 4268816#1 201956818#1 201956818#2 201956818#5 164051398 25188982#0 25192758 90587322#0 -10425611#1 -10425611#0 -10425611#0.35 -164051429#1 -164051429#0 -161678034#2 -161678034#2.33 -161678034#2.50 -161678034#1 -161678034#0 28119593 -24983010#2 -24983010#0 26973015 -145069303#4 -145069303#3 -145069303#1 -145069303#0 -32009683#1 -24972185#9 -24972185#8 -24972185#8.373"/>
    </vehicle>
    <vehicle arrivalPos="0.00" arrivalSpeed="0.00" depart="21525.09" departPos="0.00" id="carIn63576:1" type="default_003">
        <route edges="306793669 32976752 28091398 327975022 327975022.30 327975022.62 39704920 151167740 266507555 266507558 39704924 39704922 266507540 27392720 27392724 266507546 266507536 27550700 27454737 266507535 32930761 146973160 266885714 266885716 266885719 266885719.121 266885713"/>
    </vehicle>
    <vehicle arrivalPos="230.00" arrivalSpeed="0.00" depart="21526.00" departPos="0.00" id="carIn38013:1" type="default_003">
        <route edges="380271165#0 161680736 28593900 266885722 266885721#0 161680744#0 161680744#1 266887586 266887587 266887592 141058757 266887585#0 266887593#0 20266190#0 20266190#2 -72883541#0 30054829#0 201926265#5 201278209#0 201278209#2 -20405619"/>
    </vehicle>
    <vehicle arrivalPos="0.00" arrivalSpeed="0.00" depart="21527.09" departPos="0.00" id="carIn29156:1" type="default_003">
        <route edges="306793669 32976752 28091398 327975022 327975022.30 327975022.62 39704919 28091397 542650138 266507547 -266507550 -308849647 -201789794#3 -201789794#2 -202070429#9 -202070429#6 -202070429#5 -202070429#4 -202070429#3 -202070429#2 -202070429#1 -202070429#0 151167728 257907859#0 257907859#1 257907860#0 257907860#1.168 305390325#0 25797295#0 -201444272#0 30404130#0 30404130#1 64464420 25955089 64464430 32009826#0 32009826#1 31342305 30404124 266567307#0 233673425#0 233673425#1 24977590#0 24977590#1 266565299 266565295#0 266565295#1 266565295#2 266565295#3 266565295#4 266565295#5 32999435 32124637#0 32124637#1 168702040#1 168702040#2 168702040#3 168702040#4 168702039#0 168702039#1 32999434#0 201089423#0 201089423#2 32124744 32124743 285716192#0 285716192#0.83 201963535 -104010328 -25145012#6 -25145012#5 22716069#2 -653473569#1 -653473569#0 -653473568#1 -653473568#0 -18813598#8"/>
    </vehicle>
    <vehicle arrivalPos="0.00" arrivalSpeed="0.00" depart="21527.98" departPos="0.00" id="carIn85168:1" type="default_003">
        <route edges="138300617#0 138300617#4 138300617#5 -39577540 -39577538 39577537 306793670#1"/>
    </vehicle>
    <vehicle arrivalPos="0.00" arrivalSpeed="0.00" depart="21528.00" departPos="0.00" id="carIn11084:1" type="default_003">
        <route edges="380271165#0 161680736 28593900 266885722 266885721#0 161680744#0 161680744#1 266887586 266887587 266887592 141058757 266887585#0 266887593#0 266887593#4 266887588#0 266887588#1 201926268#0 266887589#0 589179144 266887590#0 266887590#1 4268816#0 4268816#1 201956818#1 201956818#2 201956818#5 164051398 203971379#0 203971379#1 -54154922#1 -54154922#0 -24977473#2 164051410#0 164051410#1 32199969#0 32199969#2 32199969#5 32199989#0 32199989#1 323248156#0 25797090#1 201444272#0 201444272#1 201444272#3 29027727#0 29027727#4 29027727#6 29027727#7 29027727#9 152077572#0 152077572#2 152077572#2.79 54858974 542727960 30399316#0 30399316#0.52"/>
    </vehicle>
    <vehicle arrivalPos="0.00" arrivalSpeed="0.00" depart="21528.00" departPos="0.00" id="carIn110434:1" type="default_003">