<?xml version="1.0" encoding="UTF-8"?>

<!-- generated on 2022-04-11 14:18:26 by Eclipse SUMO netedit Version v1_10_0+1844-a95981ac25a
<configuration xmlns:xsi="http://www.w3.org/2001/XMLSchema-instance" xsi:noNamespaceSchemaLocation="http://sumo.dlr.de/xsd/netconvertConfiguration.xsd">

    <input>
        <sumo-net-file value="ingolstadt_reduced.net.xml"/>
    </input>

    <output>
        <output-file value="ingolstadt_reduced.net.xml"/>
    </output>

    <processing>
        <geometry.min-radius.fix.railways value="false"/>
        <geometry.max-grade.fix value="false"/>
        <offset.disable-normalization value="true"/>
        <lefthand value="false"/>
    </processing>

    <junctions>
        <no-turnarounds value="true"/>
        <junctions.corner-detail value="5"/>
        <junctions.limit-turn-speed value="5.5"/>
        <rectangular-lane-cut value="false"/>
    </junctions>

    <pedestrian>
        <walkingareas value="false"/>
    </pedestrian>

    <netedit>
        <additional-files value="/home/momo/dateien/Studies/thesis/workspace/test_InTAS/scenario/buildings_reduced.poly.xml"/>
    </netedit>

    <report>
        <aggregate-warnings value="5"/>
    </report>

</configuration>
-->

<additional xmlns:xsi="http://www.w3.org/2001/XMLSchema-instance" xsi:noNamespaceSchemaLocation="http://sumo.dlr.de/xsd/additional_file.xsd">
    <poly id="117560669" type="building" color="blue" fill="1" layer="2.00" shape="214966.080000,452113.040000 214983.300000,452115.820000 214985.700000,452100.970000 214968.490000,452098.190000 214968.190000,452100.060000 214966.080000,452113.040000"/>
    <poly id="117560672" type="building" color="blue" fill="1" layer="2.00" shape="215011.980000,452091.940000 215013.700000,452079.850000 215049.320000,452085.750000 215043.580000,452092.980000 215047.290000,452093.530000 215043.560000,452096.980000 215011.980000,452091.940000"/>
    <poly id="137463483" type="building" color="blue" fill="1" layer="2.00" shape="214977.740000,452075.400000 214984.720000,452076.530000 214988.040000,452056.110000 214981.060000,452054.990000 214977.740000,452075.400000"/>
    <poly id="137463484" type="building" color="blue" fill="1" layer="2.00" shape="214962.710000,452099.080000 214968.190000,452100.060000 214966.080000,452113.040000 214960.830000,452112.340000 214962.710000,452099.080000"/>
    <poly id="166808252" type="building" color="blue" fill="1" layer="2.00" shape="214942.470000,452165.200000 214954.490000,452166.970000 214957.670000,452145.410000 214945.660000,452143.640000 214942.470000,452165.200000"/>
    <poly id="169288940" type="building" color="blue" fill="1" layer="2.00" shape="214979.480000,452203.250000 214970.980000,452201.930000 214970.400000,452205.670000 214961.900000,452204.350000 214970.380000,452150.090000 214990.560000,452153.220000 214989.270000,452161.490000 214985.590000,452164.160000 214979.480000,452203.250000"/>
    <poly id="169288948" type="building" color="blue" fill="1" layer="2.00" shape="214939.300000,452224.640000 214929.010000,452223.020000 214937.060000,452172.310000 214947.350000,452173.930000 214939.300000,452224.640000"/>
    <poly id="169288958" type="building" color="blue" fill="1" layer="2.00" shape="215017.130000,452236.310000 214996.030000,452235.770000 214997.750000,452168.660000 215018.850000,452169.210000 215017.130000,452236.310000"/>
    <poly id="169288959" type="building" color="blue" fill="1" layer="2.00" shape="215021.100000,452173.620000 215024.860000,452160.720000 215053.030000,452168.900000 215044.080000,452199.520000 215029.970000,452195.430000 215035.150000,452177.700000 215021.100000,452173.620000"/>
    <poly id="208903596" type="building" color="blue" fill="1" layer="2.00" shape="214997.620000,452163.450000 215013.640000,452165.290000 215014.740000,452155.770000 214998.720000,452153.920000 214997.620000,452163.450000"/>
    <poly id="208903630" type="building" color="blue" fill="1" layer="2.00" shape="214891.670000,452200.920000 214902.800000,452202.500000 214904.970000,452187.200000 214893.840000,452185.620000 214891.670000,452200.920000"/>
    <poly id="35744534" type="building" color="blue" fill="1" layer="2.00" shape="214887.900000,452064.800000 214877.000000,452063.090000 214871.860000,452095.920000 214882.770000,452097.620000 214887.900000,452064.800000"/>
    <poly id="35744544" type="building" color="blue" fill="1" layer="2.00" shape="214909.510000,452178.870000 214896.730000,452176.790000 214902.380000,452142.310000 214915.170000,452144.400000 214909.510000,452178.870000"/>
    <poly id="53898192" type="building" color="blue" fill="1" layer="2.00" shape="214840.260000,452085.130000 214851.670000,452086.680000 214857.040000,452047.360000 214851.870000,452046.660000 214845.620000,452045.800000 214840.260000,452085.130000"/>
    <poly id="53898193" type="building" color="blue" fill="1" layer="2.00" shape="214892.890000,452065.790000 214903.980000,452067.710000 214909.580000,452035.130000 214898.490000,452033.220000 214892.890000,452065.790000"/>
    <poly id="53898204" type="building" color="blue" fill="1" layer="2.00" shape="214909.320000,452078.100000 214928.550000,452080.720000 214929.960000,452070.350000 214910.730000,452067.740000 214909.320000,452078.100000"/>
    <poly id="54154923" type="building" color="blue" fill="1" layer="2.00" shape="214820.450000,452133.470000 214865.560000,452139.250000 214866.780000,452129.760000 214821.670000,452123.970000 214820.450000,452133.470000"/>
    <poly id="73420431" type="building" color="blue" fill="1" layer="2.00" shape="214960.830000,452112.340000 214948.040000,452110.530000 214953.480000,452072.200000 214966.270000,452074.000000 214962.710000,452099.080000 214960.830000,452112.340000"/>
    <poly id="73420445" type="building" color="blue" fill="1" layer="2.00" shape="214983.300000,452115.820000 214985.700000,452100.970000 214989.620000,452076.020000 214988.530000,452075.800000 214992.830000,452047.710000 215057.630000,452058.120000 215053.250000,452086.160000 215049.320000,452085.750000 215013.700000,452079.850000 215002.040000,452078.030000 215000.450000,452090.040000 214997.360000,452107.310000 214995.260000,452118.090000 214983.300000,452115.820000"/>
    <poly id="73420452" type="building" color="blue" fill="1" layer="2.00" shape="215040.250000,452123.110000 215045.810000,452116.260000 215039.950000,452100.670000 215043.560000,452096.980000 215011.980000,452091.940000 215000.450000,452090.040000 214997.360000,452107.310000 215000.970000,452107.750000 215004.750000,452118.680000 215023.930000,452121.620000 215024.810000,452120.690000 215040.250000,452123.110000"/>
    <poi id="298311988" type="amenity" color="black" layer="7.00" x="214980.62" y="452112.69"/>
    <poi id="5301833085" type="amenity" color="black" layer="7.00" x="215034.00" y="452165.15"/>
</additional>
