<?xml version="1.0" encoding="UTF-8"?>

<!-- generated on 2022-04-11 14:43:23 by Eclipse SUMO duarouter Version 1.12.0
<configuration xmlns:xsi="http://www.w3.org/2001/XMLSchema-instance" xsi:noNamespaceSchemaLocation="http://sumo.dlr.de/xsd/duarouterConfiguration.xsd">

    <input>
        <net-file value="ingolstadt_rtest.net.xml"/>
        <route-files value="trips.xml"/>
    </input>

    <output>
        <output-file value="routes.rou.xml"/>
        <alternatives-output value="routes.rou.alt.xml"/>
    </output>

    <time>
        <begin value="0"/>
        <end value="100"/>
    </time>

    <report>
        <no-warnings value="true"/>
        <ignore-errors value="true"/>
        <no-step-log value="true"/>
    </report>

</configuration>
-->

<routes xmlns:xsi="http://www.w3.org/2001/XMLSchema-instance" xsi:noNamespaceSchemaLocation="http://sumo.dlr.de/xsd/routes_file.xsd">
    <vehicle id="1" depart="2.00">
        <route edges="257907860#1.168 25902677#0"/>
    </vehicle>
    <vehicle id="2" depart="4.00">
        <route edges="25796398#0 305495773#0"/>
    </vehicle>
    <vehicle id="3" depart="6.00">
        <route edges="31342064#1.83 25902677#0"/>
    </vehicle>
    <vehicle id="4" depart="8.00">
        <route edges="257907860#1.168 25902677#0"/>
    </vehicle>
    <vehicle id="5" depart="10.00">
        <route edges="137463477#0 305495773#0"/>
    </vehicle>
    <vehicle id="6" depart="12.00">
        <route edges="137463477#0 25902677#0"/>
    </vehicle>
    <vehicle id="7" depart="14.00">
        <route edges="25796398#0 305495773#0"/>
    </vehicle>
    <vehicle id="8" depart="16.00">
        <route edges="137463477#0 305495773#0"/>
    </vehicle>
    <vehicle id="9" depart="18.00">
        <route edges="31342064#1.83 25902677#0"/>
    </vehicle>
    <vehicle id="10" depart="20.00">
        <route edges="31342064#1.83 305495773#0"/>
    </vehicle>
    <vehicle id="11" depart="22.00">
        <route edges="257907860#1.168 25902677#0"/>
    </vehicle>
    <vehicle id="12" depart="24.00">
        <route edges="31342064#1.83 25902677#0 25796398#0 305390325#0"/>
    </vehicle>
    <vehicle id="13" depart="26.00">
        <route edges="137463477#0 25902677#0"/>
    </vehicle>
    <vehicle id="14" depart="28.00">
        <route edges="31342064#1.83 305495773#0"/>
    </vehicle>
    <vehicle id="15" depart="30.00">
        <route edges="31342064#1.83 305495773#0"/>
    </vehicle>
    <vehicle id="16" depart="32.00">
        <route edges="25796398#0 31894763#0"/>
    </vehicle>
    <vehicle id="17" depart="34.00">
        <route edges="257907860#1.168 25902677#0 25796398#0 305495773#0"/>
    </vehicle>
    <vehicle id="18" depart="36.00">
        <route edges="31342064#1.83 305495773#0"/>
    </vehicle>
    <vehicle id="19" depart="38.00">
        <route edges="31342064#1.83 305495773#0"/>
    </vehicle>
    <vehicle id="21" depart="42.00">
        <route edges="137463477#0 305390325#0"/>
    </vehicle>
    <vehicle id="22" depart="44.00">
        <route edges="137463477#0 25902677#0"/>
    </vehicle>
    <vehicle id="23" depart="46.00">
        <route edges="137463477#0 305390325#0"/>
    </vehicle>
    <vehicle id="24" depart="48.00">
        <route edges="25796398#0 305390325#0"/>
    </vehicle>
    <vehicle id="25" depart="50.00">
        <route edges="257907860#1.168 25902677#0"/>
    </vehicle>
    <vehicle id="26" depart="52.00">
        <route edges="257907860#1.168 31894763#0"/>
    </vehicle>
    <vehicle id="27" depart="54.00">
        <route edges="25796398#0 305495773#0"/>
    </vehicle>
    <vehicle id="28" depart="56.00">
        <route edges="137463477#0 305495773#0"/>
    </vehicle>
    <vehicle id="29" depart="58.00">
        <route edges="137463477#0 305390325#0"/>
    </vehicle>
    <vehicle id="30" depart="60.00">
        <route edges="31342064#1.83 305495773#0"/>
    </vehicle>
    <vehicle id="31" depart="62.00">
        <route edges="25796398#0 305495773#0"/>
    </vehicle>
    <vehicle id="32" depart="64.00">
        <route edges="31342064#1.83 31894763#0"/>
    </vehicle>
    <vehicle id="33" depart="66.00">
        <route edges="137463477#0 25902677#0"/>
    </vehicle>
    <vehicle id="34" depart="68.00">
        <route edges="257907860#1.168 305390325#0"/>
    </vehicle>
    <vehicle id="35" depart="70.00">
        <route edges="137463477#0 25902677#0 25796398#0 31894763#0"/>
    </vehicle>
    <vehicle id="36" depart="72.00">
        <route edges="31342064#1.83 25902677#0 25796398#0 305390325#0"/>
    </vehicle>
    <vehicle id="37" depart="74.00">
        <route edges="25796398#0 305390325#0"/>
    </vehicle>
    <vehicle id="38" depart="76.00">
        <route edges="31342064#1.83 25902677#0 25796398#0 305390325#0"/>
    </vehicle>
    <vehicle id="39" depart="78.00">
        <route edges="257907860#1.168 25902677#0"/>
    </vehicle>
    <vehicle id="40" depart="80.00">
        <route edges="25796398#0 305390325#0"/>
    </vehicle>
    <vehicle id="41" depart="82.00">
        <route edges="25796398#0 31894763#0"/>
    </vehicle>
    <vehicle id="42" depart="84.00">
        <route edges="257907860#1.168 25902677#0"/>
    </vehicle>
    <vehicle id="43" depart="86.00">
        <route edges="31342064#1.83 305495773#0"/>
    </vehicle>
    <vehicle id="44" depart="88.00">
        <route edges="137463477#0 25902677#0"/>
    </vehicle>
    <vehicle id="45" depart="90.00">
        <route edges="137463477#0 305495773#0"/>
    </vehicle>
    <vehicle id="46" depart="92.00">
        <route edges="31342064#1.83 25902677#0 25796398#0 305390325#0"/>
    </vehicle>
    <vehicle id="47" depart="94.00">
        <route edges="137463477#0 305390325#0"/>
    </vehicle>
    <vehicle id="48" depart="96.00">
        <route edges="31342064#1.83 305495773#0"/>
    </vehicle>
    <vehicle id="49" depart="98.00">
        <route edges="31342064#1.83 31894763#0"/>
    </vehicle>
</routes>
