<additional>
<poi id="1" type="eNodeB" color="white" width="10" height="30" layer="202.00" lat="0.000266" lon="4.511153" imgFile="../images/enodeb.jpg"/>
<poi id="2" type="eNodeB" color="white" width="10" height="30" layer="202.00" lat="0.000269" lon="4.512158" imgFile="../images/enodeb.jpg"/>
</additional>
