<?xml version="1.0" encoding="UTF-8"?>

<!-- generated on Mi 13 Nov 2019 12:02:08 CET by Eclipse SUMO netedit Version 1.2.0
<configuration xmlns:xsi="http://www.w3.org/2001/XMLSchema-instance" xsi:noNamespaceSchemaLocation="http://sumo.dlr.de/xsd/netconvertConfiguration.xsd">

    <input>
        <sumo-net-file value="straight_line.net.xml"/>
    </input>

    <output>
        <output-file value="straight_line.net.xml"/>
    </output>

    <processing>
        <geometry.max-grade.fix value="false"/>
        <offset.disable-normalization value="true"/>
        <lefthand value="false"/>
    </processing>

    <junctions>
        <no-internal-links value="true"/>
        <no-turnarounds value="true"/>
        <junctions.corner-detail value="5"/>
        <junctions.limit-turn-speed value="5.5"/>
        <rectangular-lane-cut value="false"/>
    </junctions>

    <pedestrian>
        <walkingareas value="false"/>
    </pedestrian>

    <netedit>
        <additional-files value="/home/rosk/dev/Artery-CP/scenarios/tests/scenarios/obstructed_road/obstacles.poly.xml"/>
    </netedit>

</configuration>
-->

<additional xmlns:xsi="http://www.w3.org/2001/XMLSchema-instance" xsi:noNamespaceSchemaLocation="http://sumo.dlr.de/xsd/additional_file.xsd">
    <poly id="poly_0" color="red" fill="0" layer="128.00" shape="32.630000,17.800000 32.950000,-28.180000 40.730000,-28.260000 40.330000,17.550000 32.710000,17.720000"/>
</additional>
