<?xml version="1.0" encoding="UTF-8"?>

<!-- generated on Mi 13 Nov 2019 12:01:59 CET by Eclipse SUMO netedit Version 1.2.0
<configuration xmlns:xsi="http://www.w3.org/2001/XMLSchema-instance" xsi:noNamespaceSchemaLocation="http://sumo.dlr.de/xsd/netconvertConfiguration.xsd">

    <input>
        <sumo-net-file value="straight_line.net.xml"/>
    </input>

    <output>
        <output-file value="straight_line.net.xml"/>
    </output>

    <processing>
        <geometry.max-grade.fix value="false"/>
        <offset.disable-normalization value="true"/>
        <lefthand value="false"/>
    </processing>

    <junctions>
        <no-internal-links value="true"/>
        <no-turnarounds value="true"/>
        <junctions.corner-detail value="5"/>
        <junctions.limit-turn-speed value="5.5"/>
        <rectangular-lane-cut value="false"/>
    </junctions>

    <pedestrian>
        <walkingareas value="false"/>
    </pedestrian>

</configuration>
-->

<net version="1.1" junctionCornerDetail="5" limitTurnSpeed="5.50" xmlns:xsi="http://www.w3.org/2001/XMLSchema-instance" xsi:noNamespaceSchemaLocation="http://sumo.dlr.de/xsd/net_file.xsd">

    <location netOffset="0.00,0.00" convBoundary="0.00,-0.60,76.24,0.00" origBoundary="-10000000000.00,-10000000000.00,10000000000.00,10000000000.00" projParameter="+proj=utm +zone=32 +ellps=WGS84 +datum=WGS84 +units=m +no_defs"/>

    <edge id="route0" from="beg0" to="end0" priority="-1">
        <lane id="route0_0" index="0" speed="13.89" length="30.00" shape="0.00,-1.60 30.00,-1.60"/>
    </edge>
    <edge id="route1" from="beg1" to="end1" priority="-1">
        <lane id="route1_0" index="0" speed="13.89" length="31.88" shape="44.37,-2.20 76.25,-2.01"/>
    </edge>

    <junction id="beg0" type="dead_end" x="0.00" y="0.00" incLanes="" intLanes="" shape="0.00,0.00 0.00,-3.20"/>
    <junction id="beg1" type="dead_end" x="44.36" y="-0.60" incLanes="" intLanes="" shape="44.36,-0.60 44.38,-3.80"/>
    <junction id="end0" type="dead_end" x="30.00" y="0.00" incLanes="route0_0" intLanes="" shape="30.00,-3.20 30.00,0.00"/>
    <junction id="end1" type="dead_end" x="76.24" y="-0.41" incLanes="route1_0" intLanes="" shape="76.26,-3.61 76.24,-0.41"/>

</net>
